WIDTH = 8;
DEPTH = 16384;
ADDRESS_RADIX = HEX;
DATA_RADIX = HEX;
CONTENT
BEGIN
 0 : 00;
 1 : 1f;
 2 : ff;
 3 : fc;
 4 : 00;
 5 : e0;
 6 : 00;
 7 : 08;
 8 : 33;
 9 : fc;
 A : 18;
 B : 79;
 C : 00;
 D : f0;
 E : 00;
 F : 00;
 10 : 33;
 11 : fc;
 12 : 35;
 13 : cc;
 14 : 00;
 15 : f0;
 16 : 00;
 17 : 02;
 18 : 33;
 19 : fc;
 1A : 03;
 1B : 4c;
 1C : 00;
 1D : f0;
 1E : 00;
 1F : 2e;
 20 : 33;
 21 : fc;
 22 : 06;
 23 : b1;
 24 : 00;
 25 : f0;
 26 : 00;
 27 : 30;
 28 : 33;
 29 : fc;
 2A : 00;
 2B : 7d;
 2C : 00;
 2D : f0;
 2E : 00;
 2F : 32;
 30 : 33;
 31 : fc;
 32 : 06;
 33 : 81;
 34 : 00;
 35 : f0;
 36 : 00;
 37 : 3c;
 38 : 33;
 39 : fc;
 3A : 00;
 3B : cb;
 3C : 00;
 3D : f0;
 3E : 00;
 3F : 38;
 40 : 33;
 41 : fc;
 42 : 02;
 43 : 0b;
 44 : 00;
 45 : f0;
 46 : 00;
 47 : 3e;
 48 : 33;
 49 : fc;
 4A : 00;
 4B : 18;
 4C : 00;
 4D : f0;
 4E : 00;
 4F : 42;
 50 : 33;
 51 : fc;
 52 : 00;
 53 : 26;
 54 : 00;
 55 : f0;
 56 : 00;
 57 : 46;
 58 : 33;
 59 : fc;
 5A : 02;
 5B : 06;
 5C : 00;
 5D : f0;
 5E : 00;
 5F : 48;
 60 : 33;
 61 : fc;
 62 : 01;
 63 : f4;
 64 : 00;
 65 : f0;
 66 : 00;
 67 : 40;
 68 : 33;
 69 : fc;
 6A : 02;
 6B : 05;
 6C : 00;
 6D : f0;
 6E : 00;
 6F : 44;
 70 : 41;
 71 : fa;
 72 : 00;
 73 : 28;
 74 : 43;
 75 : f8;
 76 : 3f;
 77 : fc;
 78 : 3e;
 79 : 3c;
 7A : 10;
 7B : 00;
 7C : 22;
 7D : d8;
 7E : 51;
 7F : cf;
 80 : ff;
 81 : fc;
 82 : 41;
 83 : fa;
 84 : 00;
 85 : 14;
 86 : 43;
 87 : f8;
 88 : 38;
 89 : 00;
 8A : 22;
 8B : d8;
 8C : 22;
 8D : d8;
 8E : 22;
 8F : d8;
 90 : 22;
 91 : d8;
 92 : 43;
 93 : f8;
 94 : 38;
 95 : 00;
 96 : 4e;
 97 : d1;
 98 : 41;
 99 : f8;
 9A : 40;
 9B : 00;
 9C : 4e;
 9D : d0;
 9E : 23;
 9F : fc;
 A0 : 00;
 A1 : 07;
 A2 : 00;
 A3 : 07;
 A4 : 00;
 A5 : f0;
 A6 : 21;
 A7 : 0c;
 A8 : 33;
 A9 : fc;
 AA : ff;
 AB : ff;
 AC : 00;
 AD : f0;
 AE : 00;
 AF : 4e;
 B0 : 2e;
 B1 : 7c;
 B2 : 00;
 B3 : 1f;
 B4 : ff;
 B5 : fc;
 B6 : 4e;
 B7 : b9;
 B8 : 00;
 B9 : 00;
 BA : 40;
 BB : 7c;
 BC : 4e;
 BD : b9;
 BE : 00;
 BF : 00;
 C0 : 42;
 C1 : 58;
 C2 : 4e;
 C3 : b9;
 C4 : 00;
 C5 : 00;
 C6 : 41;
 C7 : 28;
 C8 : 4e;
 C9 : b9;
 CA : 00;
 CB : 00;
 CC : 40;
 CD : 46;
 CE : 23;
 CF : c0;
 D0 : 00;
 D1 : f0;
 D2 : 00;
 D3 : 20;
 D4 : 33;
 D5 : fc;
 D6 : 06;
 D7 : c1;
 D8 : 00;
 D9 : f0;
 DA : 00;
 DB : 28;
 DC : 4e;
 DD : b9;
 DE : 00;
 DF : 00;
 E0 : 42;
 E1 : f0;
 E2 : 4a;
 E3 : fc;
 E4 : 2f;
 E5 : 00;
 E6 : 21;
 E7 : fc;
 E8 : 00;
 E9 : 00;
 EA : 42;
 EB : 30;
 EC : 01;
 ED : 00;
 EE : 30;
 EF : 39;
 F0 : 00;
 F1 : 00;
 F2 : 66;
 F3 : 0e;
 F4 : 00;
 F5 : 40;
 F6 : 00;
 F7 : 01;
 F8 : 33;
 F9 : c0;
 FA : 00;
 FB : f0;
 FC : 00;
 FD : 4e;
 FE : 30;
 FF : 39;
 100 : 00;
 101 : f0;
 102 : 00;
 103 : e0;
 104 : 00;
 105 : 40;
 106 : 00;
 107 : 01;
 108 : 33;
 109 : c0;
 10A : 00;
 10B : f0;
 10C : 00;
 10D : e0;
 10E : 40;
 10F : c0;
 110 : c0;
 111 : 7c;
 112 : f8;
 113 : ff;
 114 : 46;
 115 : c0;
 116 : 20;
 117 : 1f;
 118 : 4e;
 119 : 75;
 11A : 2f;
 11B : 00;
 11C : 30;
 11D : 39;
 11E : 00;
 11F : f1;
 120 : 40;
 121 : 02;
 122 : 02;
 123 : 40;
 124 : 00;
 125 : 10;
 126 : 67;
 127 : 00;
 128 : 00;
 129 : 16;
 12A : 34;
 12B : 3c;
 12C : 03;
 12D : 37;
 12E : 30;
 12F : 3c;
 130 : 05;
 131 : 81;
 132 : 3c;
 133 : 3c;
 134 : 01;
 135 : 0a;
 136 : 38;
 137 : 3c;
 138 : 00;
 139 : f1;
 13A : 60;
 13B : 00;
 13C : 00;
 13D : 12;
 13E : 34;
 13F : 3c;
 140 : 03;
 141 : 4b;
 142 : 30;
 143 : 3c;
 144 : 05;
 145 : 65;
 146 : 3c;
 147 : 3c;
 148 : 01;
 149 : 42;
 14A : 38;
 14B : 3c;
 14C : 01;
 14D : 1f;
 14E : 33;
 14F : c0;
 150 : 00;
 151 : 00;
 152 : 66;
 153 : 10;
 154 : 33;
 155 : c4;
 156 : 00;
 157 : 00;
 158 : 66;
 159 : 12;
 15A : 32;
 15B : 00;
 15C : e2;
 15D : 41;
 15E : 94;
 15F : 41;
 160 : d4;
 161 : 7c;
 162 : 00;
 163 : 04;
 164 : 92;
 165 : 7c;
 166 : 00;
 167 : 01;
 168 : 00;
 169 : 41;
 16A : 04;
 16B : 00;
 16C : 33;
 16D : c1;
 16E : 00;
 16F : 00;
 170 : 66;
 171 : 0a;
 172 : 33;
 173 : c1;
 174 : 00;
 175 : f0;
 176 : 00;
 177 : 3c;
 178 : 33;
 179 : c2;
 17A : 00;
 17B : 00;
 17C : 66;
 17D : 08;
 17E : 33;
 17F : c2;
 180 : 00;
 181 : f0;
 182 : 00;
 183 : 38;
 184 : 33;
 185 : c2;
 186 : 00;
 187 : f0;
 188 : 00;
 189 : 3a;
 18A : 3a;
 18B : 06;
 18C : 9a;
 18D : 44;
 18E : 33;
 18F : c5;
 190 : 00;
 191 : 00;
 192 : 66;
 193 : 0c;
 194 : dc;
 195 : 44;
 196 : 33;
 197 : c6;
 198 : 00;
 199 : 00;
 19A : 66;
 19B : 0e;
 19C : 33;
 19D : f9;
 19E : 00;
 19F : 00;
 1A0 : 66;
 1A1 : 0c;
 1A2 : 00;
 1A3 : f0;
 1A4 : 00;
 1A5 : 46;
 1A6 : 33;
 1A7 : fc;
 1A8 : ff;
 1A9 : ff;
 1AA : 00;
 1AB : f0;
 1AC : 00;
 1AD : 48;
 1AE : 23;
 1AF : fc;
 1B0 : 00;
 1B1 : 00;
 1B2 : 00;
 1B3 : 00;
 1B4 : 00;
 1B5 : f0;
 1B6 : 00;
 1B7 : 2a;
 1B8 : 33;
 1B9 : fc;
 1BA : 00;
 1BB : 00;
 1BC : 00;
 1BD : f0;
 1BE : 00;
 1BF : 58;
 1C0 : 20;
 1C1 : 1f;
 1C2 : 4e;
 1C3 : 75;
 1C4 : 00;
 1C5 : 00;
 1C6 : 48;
 1C7 : e7;
 1C8 : 7c;
 1C9 : 80;
 1CA : 41;
 1CB : f9;
 1CC : 00;
 1CD : 00;
 1CE : 66;
 1CF : 20;
 1D0 : 24;
 1D1 : 08;
 1D2 : d4;
 1D3 : bc;
 1D4 : 00;
 1D5 : 00;
 1D6 : 00;
 1D7 : 20;
 1D8 : 42;
 1D9 : 81;
 1DA : 20;
 1DB : 3c;
 1DC : 00;
 1DD : 00;
 1DE : 80;
 1DF : 03;
 1E0 : 4e;
 1E1 : b9;
 1E2 : 00;
 1E3 : 00;
 1E4 : 42;
 1E5 : 10;
 1E6 : 36;
 1E7 : 39;
 1E8 : 00;
 1E9 : 00;
 1EA : 66;
 1EB : 0e;
 1EC : e7;
 1ED : 4b;
 1EE : 80;
 1EF : 43;
 1F0 : 20;
 1F1 : c1;
 1F2 : 20;
 1F3 : c0;
 1F4 : 02;
 1F5 : 80;
 1F6 : ff;
 1F7 : 00;
 1F8 : 00;
 1F9 : 07;
 1FA : 00;
 1FB : 80;
 1FC : 00;
 1FD : 00;
 1FE : 40;
 1FF : 00;
 200 : 36;
 201 : 39;
 202 : 00;
 203 : 00;
 204 : 66;
 205 : 0c;
 206 : e7;
 207 : 4b;
 208 : 80;
 209 : 43;
 20A : 20;
 20B : c1;
 20C : 20;
 20D : c0;
 20E : 42;
 20F : 81;
 210 : 42;
 211 : 80;
 212 : 4e;
 213 : b9;
 214 : 00;
 215 : 00;
 216 : 42;
 217 : 10;
 218 : 2a;
 219 : 3c;
 21A : 00;
 21B : 00;
 21C : 00;
 21D : f0;
 21E : 33;
 21F : c5;
 220 : 00;
 221 : 00;
 222 : 66;
 223 : 48;
 224 : e1;
 225 : 8d;
 226 : ed;
 227 : 8d;
 228 : 80;
 229 : 85;
 22A : 36;
 22B : 39;
 22C : 00;
 22D : 00;
 22E : 66;
 22F : 12;
 230 : 96;
 231 : 7c;
 232 : 00;
 233 : f0;
 234 : d6;
 235 : 79;
 236 : 00;
 237 : 00;
 238 : 66;
 239 : 0c;
 23A : 02;
 23B : 43;
 23C : ff;
 23D : fe;
 23E : e7;
 23F : 4b;
 240 : 80;
 241 : 43;
 242 : 26;
 243 : 3c;
 244 : 00;
 245 : 01;
 246 : 00;
 247 : 00;
 248 : 02;
 249 : 83;
 24A : 00;
 24B : ff;
 24C : ff;
 24D : f0;
 24E : e1;
 24F : 8b;
 250 : 82;
 251 : 83;
 252 : 23;
 253 : c1;
 254 : 00;
 255 : 00;
 256 : 66;
 257 : 4a;
 258 : 23;
 259 : c0;
 25A : 00;
 25B : 00;
 25C : 66;
 25D : 4e;
 25E : 20;
 25F : c1;
 260 : 20;
 261 : c0;
 262 : 22;
 263 : 3c;
 264 : 00;
 265 : 00;
 266 : 80;
 267 : 00;
 268 : 20;
 269 : 3c;
 26A : 00;
 26B : 00;
 26C : c0;
 26D : 00;
 26E : 36;
 26F : 39;
 270 : 00;
 271 : 00;
 272 : 66;
 273 : 10;
 274 : e4;
 275 : 4b;
 276 : 96;
 277 : 7c;
 278 : 01;
 279 : 40;
 27A : e2;
 27B : 4b;
 27C : 80;
 27D : 43;
 27E : 78;
 27F : 50;
 280 : 26;
 281 : 04;
 282 : e1;
 283 : 8c;
 284 : e1;
 285 : 8c;
 286 : e5;
 287 : 8c;
 288 : 80;
 289 : 84;
 28A : e1;
 28B : 8c;
 28C : e5;
 28D : 8c;
 28E : 80;
 28F : 84;
 290 : e8;
 291 : 8b;
 292 : 82;
 293 : 83;
 294 : 20;
 295 : c1;
 296 : 20;
 297 : c0;
 298 : 42;
 299 : 81;
 29A : 70;
 29B : 0c;
 29C : 20;
 29D : c1;
 29E : 20;
 29F : c0;
 2A0 : 20;
 2A1 : 3c;
 2A2 : 00;
 2A3 : 00;
 2A4 : 66;
 2A5 : 20;
 2A6 : 48;
 2A7 : 40;
 2A8 : 4c;
 2A9 : df;
 2AA : 01;
 2AB : 3e;
 2AC : 4e;
 2AD : 75;
 2AE : 48;
 2AF : e7;
 2B0 : 30;
 2B1 : 00;
 2B2 : 02;
 2B3 : 82;
 2B4 : 00;
 2B5 : 3f;
 2B6 : ff;
 2B7 : f8;
 2B8 : 26;
 2B9 : 02;
 2BA : 48;
 2BB : 42;
 2BC : 42;
 2BD : 42;
 2BE : eb;
 2BF : 8a;
 2C0 : 80;
 2C1 : 82;
 2C2 : e0;
 2C3 : 8b;
 2C4 : e6;
 2C5 : 8b;
 2C6 : 82;
 2C7 : 83;
 2C8 : 4c;
 2C9 : df;
 2CA : 00;
 2CB : 0c;
 2CC : 4e;
 2CD : 75;
 2CE : 2f;
 2CF : 08;
 2D0 : 20;
 2D1 : 7c;
 2D2 : 00;
 2D3 : 00;
 2D4 : 66;
 2D5 : 30;
 2D6 : 20;
 2D7 : f9;
 2D8 : 00;
 2D9 : 00;
 2DA : 66;
 2DB : 4a;
 2DC : 20;
 2DD : b9;
 2DE : 00;
 2DF : 00;
 2E0 : 66;
 2E1 : 4e;
 2E2 : 33;
 2E3 : fc;
 2E4 : 01;
 2E5 : 01;
 2E6 : 00;
 2E7 : f0;
 2E8 : 00;
 2E9 : e0;
 2EA : 33;
 2EB : fc;
 2EC : 00;
 2ED : 00;
 2EE : 00;
 2EF : f0;
 2F0 : 00;
 2F1 : e2;
 2F2 : 20;
 2F3 : 5f;
 2F4 : 4e;
 2F5 : 73;
 2F6 : 2f;
 2F7 : 00;
 2F8 : 20;
 2F9 : 39;
 2FA : 00;
 2FB : f0;
 2FC : 22;
 2FD : 38;
 2FE : 02;
 2FF : 40;
 300 : 00;
 301 : 01;
 302 : 67;
 303 : f2;
 304 : 20;
 305 : 3c;
 306 : 00;
 307 : 00;
 308 : 42;
 309 : 20;
 30A : 23;
 30B : c0;
 30C : 00;
 30D : f0;
 30E : 22;
 30F : 04;
 310 : 20;
 311 : 3c;
 312 : 00;
 313 : 01;
 314 : 00;
 315 : 00;
 316 : 23;
 317 : c0;
 318 : 00;
 319 : f0;
 31A : 22;
 31B : 00;
 31C : 30;
 31D : 3c;
 31E : 00;
 31F : 00;
 320 : 48;
 321 : 40;
 322 : 30;
 323 : 3c;
 324 : 00;
 325 : 00;
 326 : 23;
 327 : c0;
 328 : 00;
 329 : f0;
 32A : 22;
 32B : 0c;
 32C : 30;
 32D : 3c;
 32E : 00;
 32F : 00;
 330 : 48;
 331 : 40;
 332 : 30;
 333 : 3c;
 334 : 00;
 335 : 04;
 336 : 23;
 337 : c0;
 338 : 00;
 339 : f0;
 33A : 22;
 33B : 1c;
 33C : 30;
 33D : 3c;
 33E : 00;
 33F : 01;
 340 : 48;
 341 : 40;
 342 : 30;
 343 : 3c;
 344 : fe;
 345 : c0;
 346 : 23;
 347 : c0;
 348 : 00;
 349 : f0;
 34A : 22;
 34B : 10;
 34C : 23;
 34D : fc;
 34E : 00;
 34F : 00;
 350 : 00;
 351 : 00;
 352 : 00;
 353 : f0;
 354 : 22;
 355 : 08;
 356 : 30;
 357 : 3c;
 358 : 00;
 359 : f0;
 35A : 48;
 35B : 40;
 35C : 30;
 35D : 3c;
 35E : 01;
 35F : 40;
 360 : 23;
 361 : c0;
 362 : 00;
 363 : f0;
 364 : 22;
 365 : 3c;
 366 : 20;
 367 : 3c;
 368 : 20;
 369 : a0;
 36A : 20;
 36B : a0;
 36C : 23;
 36D : c0;
 36E : 00;
 36F : f0;
 370 : 22;
 371 : 68;
 372 : 23;
 373 : c0;
 374 : 00;
 375 : f0;
 376 : 22;
 377 : 6c;
 378 : 20;
 379 : 3c;
 37A : 00;
 37B : 01;
 37C : 02;
 37D : 00;
 37E : 23;
 37F : c0;
 380 : 00;
 381 : f0;
 382 : 22;
 383 : 38;
 384 : 20;
 385 : 1f;
 386 : 4e;
 387 : 75;
 388 : 00;
 389 : 00;
 38A : 00;
 38B : 00;
 38C : 00;
 38D : 00;
 38E : 48;
 38F : e7;
 390 : 80;
 391 : c0;
 392 : 42;
 393 : b9;
 394 : 00;
 395 : 00;
 396 : 66;
 397 : 58;
 398 : 20;
 399 : 3c;
 39A : 00;
 39B : 00;
 39C : 46;
 39D : 06;
 39E : 90;
 39F : bc;
 3A0 : 00;
 3A1 : 00;
 3A2 : 43;
 3A3 : ba;
 3A4 : e4;
 3A5 : 88;
 3A6 : 41;
 3A7 : f9;
 3A8 : 00;
 3A9 : 00;
 3AA : 43;
 3AB : ba;
 3AC : 43;
 3AD : f9;
 3AE : 00;
 3AF : f0;
 3B0 : 31;
 3B1 : 00;
 3B2 : 22;
 3B3 : d8;
 3B4 : 51;
 3B5 : c8;
 3B6 : ff;
 3B7 : fc;
 3B8 : 08;
 3B9 : 39;
 3BA : 00;
 3BB : 00;
 3BC : 00;
 3BD : f0;
 3BE : 21;
 3BF : 14;
 3C0 : 66;
 3C1 : f6;
 3C2 : 23;
 3C3 : fc;
 3C4 : 00;
 3C5 : 00;
 3C6 : 00;
 3C7 : 20;
 3C8 : 00;
 3C9 : f0;
 3CA : 3f;
 3CB : d8;
 3CC : 23;
 3CD : f9;
 3CE : 00;
 3CF : 00;
 3D0 : 66;
 3D1 : 58;
 3D2 : 00;
 3D3 : f0;
 3D4 : 3f;
 3D5 : dc;
 3D6 : 23;
 3D7 : fc;
 3D8 : 00;
 3D9 : 00;
 3DA : 46;
 3DB : 08;
 3DC : 00;
 3DD : f0;
 3DE : 3f;
 3DF : e0;
 3E0 : 23;
 3E1 : fc;
 3E2 : 00;
 3E3 : 00;
 3E4 : 00;
 3E5 : 40;
 3E6 : 00;
 3E7 : f0;
 3E8 : 3f;
 3E9 : e4;
 3EA : 23;
 3EB : fc;
 3EC : 00;
 3ED : 00;
 3EE : 00;
 3EF : 40;
 3F0 : 00;
 3F1 : f0;
 3F2 : 3f;
 3F3 : e8;
 3F4 : 23;
 3F5 : fc;
 3F6 : 00;
 3F7 : 00;
 3F8 : 30;
 3F9 : 00;
 3FA : 00;
 3FB : f0;
 3FC : 3f;
 3FD : ec;
 3FE : 23;
 3FF : fc;
 400 : 00;
 401 : 01;
 402 : 00;
 403 : 00;
 404 : 00;
 405 : f0;
 406 : 3f;
 407 : f0;
 408 : 23;
 409 : fc;
 40A : 00;
 40B : 00;
 40C : 00;
 40D : a0;
 40E : 00;
 40F : f0;
 410 : 3f;
 411 : f4;
 412 : 23;
 413 : fc;
 414 : 00;
 415 : 00;
 416 : 00;
 417 : 78;
 418 : 00;
 419 : f0;
 41A : 3f;
 41B : f8;
 41C : 23;
 41D : fc;
 41E : 00;
 41F : 00;
 420 : 42;
 421 : 00;
 422 : 00;
 423 : f0;
 424 : 3f;
 425 : fc;
 426 : 23;
 427 : fc;
 428 : 00;
 429 : f0;
 42A : 31;
 42B : 00;
 42C : 00;
 42D : f0;
 42E : 21;
 42F : 10;
 430 : 23;
 431 : fc;
 432 : 00;
 433 : 00;
 434 : 00;
 435 : 01;
 436 : 00;
 437 : f0;
 438 : 21;
 439 : 14;
 43A : 06;
 43B : b9;
 43C : 00;
 43D : 00;
 43E : 00;
 43F : 01;
 440 : 00;
 441 : 00;
 442 : 66;
 443 : 58;
 444 : 02;
 445 : b9;
 446 : 00;
 447 : 00;
 448 : 07;
 449 : ff;
 44A : 00;
 44B : 00;
 44C : 66;
 44D : 58;
 44E : 60;
 44F : 00;
 450 : ff;
 451 : 68;
 452 : 4c;
 453 : df;
 454 : 03;
 455 : 01;
 456 : 4e;
 457 : 75;
 458 : 8c;
 459 : 2a;
 45A : 62;
 45B : ea;
 45C : 98;
 45D : 0e;
 45E : 80;
 45F : 00;
 460 : 00;
 461 : 00;
 462 : 8d;
 463 : f1;
 464 : 98;
 465 : 12;
 466 : 01;
 467 : fc;
 468 : 00;
 469 : 00;
 46A : 98;
 46B : 13;
 46C : ff;
 46D : ff;
 46E : 00;
 46F : 00;
 470 : 98;
 471 : 16;
 472 : 3f;
 473 : dc;
 474 : 00;
 475 : f0;
 476 : 98;
 477 : 0b;
 478 : d2;
 479 : 00;
 47A : 00;
 47B : f1;
 47C : a6;
 47D : cf;
 47E : 89;
 47F : f0;
 480 : 64;
 481 : 8f;
 482 : 63;
 483 : cf;
 484 : 18;
 485 : 8f;
 486 : 26;
 487 : 4f;
 488 : 26;
 489 : 30;
 48A : ed;
 48B : 6c;
 48C : 08;
 48D : 8f;
 48E : 26;
 48F : 4f;
 490 : ed;
 491 : 77;
 492 : 11;
 493 : 97;
 494 : 6c;
 495 : 97;
 496 : 46;
 497 : 17;
 498 : 02;
 499 : ec;
 49A : 6c;
 49B : 2c;
 49C : 98;
 49D : 16;
 49E : 00;
 49F : 7c;
 4A0 : 00;
 4A1 : 00;
 4A2 : 02;
 4A3 : cf;
 4A4 : 26;
 4A5 : 4f;
 4A6 : ed;
 4A7 : 6d;
 4A8 : 08;
 4A9 : 8f;
 4AA : 26;
 4AB : 4f;
 4AC : ed;
 4AD : 77;
 4AE : 11;
 4AF : b7;
 4B0 : 6c;
 4B1 : 97;
 4B2 : 46;
 4B3 : 17;
 4B4 : 02;
 4B5 : ed;
 4B6 : 6c;
 4B7 : 2d;
 4B8 : 98;
 4B9 : 16;
 4BA : 3f;
 4BB : f4;
 4BC : 00;
 4BD : f0;
 4BE : a6;
 4BF : c0;
 4C0 : 98;
 4C1 : 16;
 4C2 : 3f;
 4C3 : f8;
 4C4 : 00;
 4C5 : f0;
 4C6 : a6;
 4C7 : c1;
 4C8 : 98;
 4C9 : 16;
 4CA : 3f;
 4CB : e4;
 4CC : 00;
 4CD : f0;
 4CE : a6;
 4CF : c6;
 4D0 : 98;
 4D1 : 16;
 4D2 : 3f;
 4D3 : e8;
 4D4 : 00;
 4D5 : f0;
 4D6 : a6;
 4D7 : c7;
 4D8 : 89;
 4D9 : b4;
 4DA : 89;
 4DB : 95;
 4DC : 58;
 4DD : 14;
 4DE : 58;
 4DF : 15;
 4E0 : 48;
 4E1 : f4;
 4E2 : 50;
 4E3 : d5;
 4E4 : 4c;
 4E5 : 17;
 4E6 : 48;
 4E7 : f5;
 4E8 : 50;
 4E9 : d4;
 4EA : 4c;
 4EB : 16;
 4EC : 8a;
 4ED : e7;
 4EE : 8a;
 4EF : c6;
 4F0 : 89;
 4F1 : d6;
 4F2 : 64;
 4F3 : 56;
 4F4 : 02;
 4F5 : c7;
 4F6 : 02;
 4F7 : c6;
 4F8 : 6d;
 4F9 : c7;
 4FA : 6d;
 4FB : c6;
 4FC : 88;
 4FD : d4;
 4FE : 88;
 4FF : f5;
 500 : 6c;
 501 : 34;
 502 : 6c;
 503 : 35;
 504 : 12;
 505 : 80;
 506 : 12;
 507 : a1;
 508 : 4a;
 509 : 8d;
 50A : 52;
 50B : ac;
 50C : 4c;
 50D : 04;
 50E : 63;
 50F : c4;
 510 : 20;
 511 : 14;
 512 : 4a;
 513 : 8c;
 514 : 52;
 515 : ad;
 516 : 4c;
 517 : 05;
 518 : 63;
 519 : c5;
 51A : 20;
 51B : 04;
 51C : 20;
 51D : 05;
 51E : 98;
 51F : 16;
 520 : 3f;
 521 : e4;
 522 : 00;
 523 : f0;
 524 : a6;
 525 : d4;
 526 : 64;
 527 : 34;
 528 : 62;
 529 : 14;
 52A : 98;
 52B : 16;
 52C : 3f;
 52D : e8;
 52E : 00;
 52F : f0;
 530 : a6;
 531 : d5;
 532 : 64;
 533 : 35;
 534 : 62;
 535 : 15;
 536 : 02;
 537 : 84;
 538 : 02;
 539 : a5;
 53A : 98;
 53B : 17;
 53C : 22;
 53D : 38;
 53E : 00;
 53F : f0;
 540 : a6;
 541 : f6;
 542 : 34;
 543 : 16;
 544 : d7;
 545 : a2;
 546 : e4;
 547 : 00;
 548 : 98;
 549 : 16;
 54A : 3f;
 54B : e0;
 54C : 00;
 54D : f0;
 54E : a6;
 54F : d6;
 550 : 98;
 551 : 17;
 552 : 22;
 553 : 00;
 554 : 00;
 555 : f0;
 556 : be;
 557 : f6;
 558 : 98;
 559 : 18;
 55A : 00;
 55B : 00;
 55C : 00;
 55D : 03;
 55E : 98;
 55F : 16;
 560 : 3f;
 561 : d8;
 562 : 00;
 563 : f0;
 564 : a6;
 565 : d6;
 566 : 2a;
 567 : d8;
 568 : 98;
 569 : 16;
 56A : 3f;
 56B : ec;
 56C : 00;
 56D : f0;
 56E : a6;
 56F : d6;
 570 : 2a;
 571 : d8;
 572 : 98;
 573 : 16;
 574 : 22;
 575 : 04;
 576 : 00;
 577 : f0;
 578 : be;
 579 : d8;
 57A : 88;
 57B : b6;
 57C : 66;
 57D : 16;
 57E : 62;
 57F : 16;
 580 : 88;
 581 : 97;
 582 : 66;
 583 : 17;
 584 : 2a;
 585 : f6;
 586 : 98;
 587 : 17;
 588 : 22;
 589 : 0c;
 58A : 00;
 58B : f0;
 58C : be;
 58D : f6;
 58E : 88;
 58F : b6;
 590 : 62;
 591 : 16;
 592 : 88;
 593 : 97;
 594 : 26;
 595 : 77;
 596 : 2a;
 597 : f6;
 598 : 98;
 599 : 17;
 59A : 22;
 59B : 18;
 59C : 00;
 59D : f0;
 59E : be;
 59F : f6;
 5A0 : 89;
 5A1 : 96;
 5A2 : 20;
 5A3 : 16;
 5A4 : 65;
 5A5 : d6;
 5A6 : 26;
 5A7 : 76;
 5A8 : 62;
 5A9 : 16;
 5AA : 89;
 5AB : b7;
 5AC : 65;
 5AD : d7;
 5AE : 26;
 5AF : 77;
 5B0 : 2a;
 5B1 : f6;
 5B2 : 98;
 5B3 : 17;
 5B4 : 22;
 5B5 : 1c;
 5B6 : 00;
 5B7 : f0;
 5B8 : be;
 5B9 : f6;
 5BA : 89;
 5BB : 96;
 5BC : 20;
 5BD : 16;
 5BE : 61;
 5BF : d6;
 5C0 : 89;
 5C1 : b7;
 5C2 : 63;
 5C3 : d7;
 5C4 : 26;
 5C5 : 77;
 5C6 : 2a;
 5C7 : f6;
 5C8 : 98;
 5C9 : 17;
 5CA : 22;
 5CB : 20;
 5CC : 00;
 5CD : f0;
 5CE : be;
 5CF : f6;
 5D0 : 88;
 5D1 : c2;
 5D2 : 88;
 5D3 : c3;
 5D4 : 20;
 5D5 : 02;
 5D6 : 45;
 5D7 : a2;
 5D8 : 45;
 5D9 : 83;
 5DA : 01;
 5DB : 82;
 5DC : 01;
 5DD : a3;
 5DE : 63;
 5DF : c2;
 5E0 : 63;
 5E1 : c3;
 5E2 : 88;
 5E3 : 76;
 5E4 : 66;
 5E5 : 16;
 5E6 : 62;
 5E7 : 16;
 5E8 : 88;
 5E9 : 57;
 5EA : 66;
 5EB : 17;
 5EC : 2a;
 5ED : f6;
 5EE : 98;
 5EF : 17;
 5F0 : 22;
 5F1 : 10;
 5F2 : 00;
 5F3 : f0;
 5F4 : be;
 5F5 : f6;
 5F6 : 88;
 5F7 : 76;
 5F8 : 62;
 5F9 : 16;
 5FA : 88;
 5FB : 57;
 5FC : 62;
 5FD : 17;
 5FE : 66;
 5FF : 17;
 600 : 2a;
 601 : f6;
 602 : 98;
 603 : 17;
 604 : 22;
 605 : 14;
 606 : 00;
 607 : f0;
 608 : be;
 609 : f6;
 60A : 98;
 60B : 16;
 60C : 3f;
 60D : e8;
 60E : 00;
 60F : f0;
 610 : a6;
 611 : d6;
 612 : 62;
 613 : 16;
 614 : 98;
 615 : 17;
 616 : 3f;
 617 : e4;
 618 : 00;
 619 : f0;
 61A : a6;
 61B : f7;
 61C : 2a;
 61D : f6;
 61E : 98;
 61F : 17;
 620 : 22;
 621 : 08;
 622 : 00;
 623 : f0;
 624 : be;
 625 : f6;
 626 : 98;
 627 : 16;
 628 : 3f;
 629 : f0;
 62A : 00;
 62B : f0;
 62C : a6;
 62D : d6;
 62E : 98;
 62F : 17;
 630 : 22;
 631 : 24;
 632 : 00;
 633 : f0;
 634 : be;
 635 : f6;
 636 : 98;
 637 : 18;
 638 : 00;
 639 : 00;
 63A : 00;
 63B : 01;
 63C : 98;
 63D : 16;
 63E : 3f;
 63F : d8;
 640 : 00;
 641 : f0;
 642 : a6;
 643 : d6;
 644 : 2a;
 645 : d8;
 646 : 98;
 647 : 16;
 648 : 3f;
 649 : fc;
 64A : 00;
 64B : f0;
 64C : a6;
 64D : d6;
 64E : 2a;
 64F : d8;
 650 : 98;
 651 : 16;
 652 : 22;
 653 : 28;
 654 : 00;
 655 : f0;
 656 : be;
 657 : d8;
 658 : 8c;
 659 : 36;
 65A : 62;
 65B : 16;
 65C : 88;
 65D : d7;
 65E : 20;
 65F : 17;
 660 : 62;
 661 : 17;
 662 : 66;
 663 : 17;
 664 : 2a;
 665 : f6;
 666 : 98;
 667 : 17;
 668 : 22;
 669 : 34;
 66A : 00;
 66B : f0;
 66C : be;
 66D : f6;
 66E : 88;
 66F : 36;
 670 : 62;
 671 : 16;
 672 : 28;
 673 : 16;
 674 : 98;
 675 : 17;
 676 : 22;
 677 : 30;
 678 : 00;
 679 : f0;
 67A : be;
 67B : f6;
 67C : 88;
 67D : f6;
 67E : 62;
 67F : 16;
 680 : 28;
 681 : d6;
 682 : 98;
 683 : 17;
 684 : 22;
 685 : 3c;
 686 : 00;
 687 : f0;
 688 : be;
 689 : f6;
 68A : 98;
 68B : 16;
 68C : 0f;
 68D : 41;
 68E : 01;
 68F : 80;
 690 : 98;
 691 : 17;
 692 : 22;
 693 : 38;
 694 : 00;
 695 : f0;
 696 : be;
 697 : f6;
 698 : 98;
 699 : 17;
 69A : 21;
 69B : 14;
 69C : 00;
 69D : f0;
 69E : 8c;
 69F : 16;
 6A0 : be;
 6A1 : f6;
 6A2 : e4;
 6A3 : 00;
 6A4 : 00;
 6A5 : 00;
 6A6 : 45;
 6A7 : 04;
 6A8 : 45;
 6A9 : 04;
 6AA : 45;
 6AB : 04;
 6AC : 23;
 6AD : 04;
 6AE : 24;
 6AF : 03;
 6B0 : 24;
 6B1 : 03;
 6B2 : 24;
 6B3 : 03;
 6B4 : 45;
 6B5 : 02;
 6B6 : 45;
 6B7 : 02;
 6B8 : 45;
 6B9 : 02;
 6BA : 45;
 6BB : 02;
 6BC : 24;
 6BD : 03;
 6BE : 24;
 6BF : 03;
 6C0 : 24;
 6C1 : 03;
 6C2 : 24;
 6C3 : 03;
 6C4 : 24;
 6C5 : 03;
 6C6 : 45;
 6C7 : 04;
 6C8 : 24;
 6C9 : 03;
 6CA : 45;
 6CB : 02;
 6CC : 45;
 6CD : 04;
 6CE : 44;
 6CF : 07;
 6D0 : 45;
 6D1 : 06;
 6D2 : 44;
 6D3 : 05;
 6D4 : 34;
 6D5 : 05;
 6D6 : 45;
 6D7 : 04;
 6D8 : 53;
 6D9 : 06;
 6DA : 45;
 6DB : 06;
 6DC : 45;
 6DD : 06;
 6DE : 44;
 6DF : 05;
 6E0 : 34;
 6E1 : 05;
 6E2 : 45;
 6E3 : 04;
 6E4 : 34;
 6E5 : 05;
 6E6 : 45;
 6E7 : 04;
 6E8 : 55;
 6E9 : 07;
 6EA : 54;
 6EB : 07;
 6EC : 45;
 6ED : 02;
 6EE : 70;
 6EF : 01;
 6F0 : 40;
 6F1 : 02;
 6F2 : 45;
 6F3 : 02;
 6F4 : 42;
 6F5 : 04;
 6F6 : 24;
 6F7 : 03;
 6F8 : 40;
 6F9 : 02;
 6FA : 45;
 6FB : 02;
 6FC : 24;
 6FD : 03;
 6FE : 45;
 6FF : 02;
 700 : 45;
 701 : 02;
 702 : 40;
 703 : 02;
 704 : 45;
 705 : 02;
 706 : 53;
 707 : 03;
 708 : 53;
 709 : 03;
 70A : 45;
 70B : 02;
 70C : 45;
 70D : 02;
 70E : 45;
 70F : 02;
 710 : 24;
 711 : 03;
 712 : 45;
 713 : 02;
 714 : 24;
 715 : 03;
 716 : 24;
 717 : 03;
 718 : 53;
 719 : 03;
 71A : 53;
 71B : 03;
 71C : 24;
 71D : 03;
 71E : 33;
 71F : 07;
 720 : 34;
 721 : 09;
 722 : 23;
 723 : 07;
 724 : 13;
 725 : 05;
 726 : 45;
 727 : 04;
 728 : 45;
 729 : 04;
 72A : 45;
 72B : 04;
 72C : 42;
 72D : 04;
 72E : 24;
 72F : 03;
 730 : 24;
 731 : 03;
 732 : 42;
 733 : 04;
 734 : 24;
 735 : 03;
 736 : 45;
 737 : 02;
 738 : 23;
 739 : 04;
 73A : 42;
 73B : 04;
 73C : 42;
 73D : 04;
 73E : 24;
 73F : 03;
 740 : 24;
 741 : 03;
 742 : 53;
 743 : 03;
 744 : 65;
 745 : 05;
 746 : 54;
 747 : 06;
 748 : 45;
 749 : 02;
 74A : 45;
 74B : 02;
 74C : 34;
 74D : 05;
 74E : 44;
 74F : 07;
 750 : 45;
 751 : 06;
 752 : 44;
 753 : 05;
 754 : 45;
 755 : 06;
 756 : 45;
 757 : 06;
 758 : 44;
 759 : 05;
 75A : 54;
 75B : 06;
 75C : 46;
 75D : 05;
 75E : 45;
 75F : 06;
 760 : 44;
 761 : 05;
 762 : 34;
 763 : 05;
 764 : 44;
 765 : 05;
 766 : 34;
 767 : 05;
 768 : 45;
 769 : 04;
 76A : 45;
 76B : 02;
 76C : 40;
 76D : 02;
 76E : 40;
 76F : 02;
 770 : 40;
 771 : 02;
 772 : 45;
 773 : 02;
 774 : 40;
 775 : 02;
 776 : 40;
 777 : 02;
 778 : 40;
 779 : 02;
 77A : 45;
 77B : 02;
 77C : 45;
 77D : 02;
 77E : 45;
 77F : 02;
 780 : 40;
 781 : 02;
 782 : 70;
 783 : 01;
 784 : 45;
 785 : 02;
 786 : 24;
 787 : 03;
 788 : 45;
 789 : 02;
 78A : 45;
 78B : 02;
 78C : 45;
 78D : 02;
 78E : 24;
 78F : 03;
 790 : 53;
 791 : 03;
 792 : 24;
 793 : 03;
 794 : 24;
 795 : 03;
 796 : 56;
 797 : 03;
 798 : 24;
 799 : 03;
 79A : 45;
 79B : 02;
 79C : 45;
 79D : 02;
 79E : 42;
 79F : 04;
 7A0 : 42;
 7A1 : 04;
 7A2 : 13;
 7A3 : 05;
 7A4 : 23;
 7A5 : 04;
 7A6 : 45;
 7A7 : 04;
 7A8 : 45;
 7A9 : 04;
 7AA : 45;
 7AB : 04;
 7AC : 42;
 7AD : 04;
 7AE : 24;
 7AF : 03;
 7B0 : 53;
 7B1 : 03;
 7B2 : 23;
 7B3 : 04;
 7B4 : 24;
 7B5 : 03;
 7B6 : 53;
 7B7 : 03;
 7B8 : 34;
 7B9 : 05;
 7BA : 42;
 7BB : 04;
 7BC : 24;
 7BD : 03;
 7BE : 42;
 7BF : 04;
 7C0 : 42;
 7C1 : 04;
 7C2 : 85;
 7C3 : 09;
 7C4 : 97;
 7C5 : 19;
 7C6 : 86;
 7C7 : 10;
 7C8 : 74;
 7C9 : 02;
 7CA : 24;
 7CB : 03;
 7CC : 34;
 7CD : 05;
 7CE : 46;
 7CF : 05;
 7D0 : 45;
 7D1 : 06;
 7D2 : 45;
 7D3 : 06;
 7D4 : 45;
 7D5 : 06;
 7D6 : 46;
 7D7 : 07;
 7D8 : 54;
 7D9 : 06;
 7DA : 44;
 7DB : 05;
 7DC : 34;
 7DD : 05;
 7DE : 44;
 7DF : 05;
 7E0 : 42;
 7E1 : 04;
 7E2 : 45;
 7E3 : 04;
 7E4 : 23;
 7E5 : 04;
 7E6 : 45;
 7E7 : 04;
 7E8 : 43;
 7E9 : 06;
 7EA : 42;
 7EB : 04;
 7EC : 40;
 7ED : 02;
 7EE : 40;
 7EF : 02;
 7F0 : 70;
 7F1 : 01;
 7F2 : 45;
 7F3 : 02;
 7F4 : 40;
 7F5 : 02;
 7F6 : 40;
 7F7 : 02;
 7F8 : 45;
 7F9 : 02;
 7FA : 45;
 7FB : 02;
 7FC : 24;
 7FD : 03;
 7FE : 45;
 7FF : 02;
 800 : 24;
 801 : 03;
 802 : 45;
 803 : 02;
 804 : 45;
 805 : 02;
 806 : 45;
 807 : 02;
 808 : 45;
 809 : 02;
 80A : 45;
 80B : 02;
 80C : 45;
 80D : 02;
 80E : 45;
 80F : 02;
 810 : 45;
 811 : 02;
 812 : 45;
 813 : 02;
 814 : 24;
 815 : 03;
 816 : 24;
 817 : 03;
 818 : 24;
 819 : 03;
 81A : 45;
 81B : 02;
 81C : 45;
 81D : 02;
 81E : 24;
 81F : 03;
 820 : 24;
 821 : 03;
 822 : 23;
 823 : 04;
 824 : 23;
 825 : 04;
 826 : 45;
 827 : 04;
 828 : 45;
 829 : 04;
 82A : 45;
 82B : 04;
 82C : 42;
 82D : 04;
 82E : 23;
 82F : 04;
 830 : 24;
 831 : 03;
 832 : 24;
 833 : 03;
 834 : 42;
 835 : 04;
 836 : 45;
 837 : 04;
 838 : 54;
 839 : 06;
 83A : 43;
 83B : 06;
 83C : 44;
 83D : 05;
 83E : 45;
 83F : 04;
 840 : 42;
 841 : 04;
 842 : 75;
 843 : 08;
 844 : 98;
 845 : 20;
 846 : b7;
 847 : 3a;
 848 : 95;
 849 : 0b;
 84A : 34;
 84B : 05;
 84C : 34;
 84D : 05;
 84E : 44;
 84F : 05;
 850 : 45;
 851 : 06;
 852 : 44;
 853 : 07;
 854 : 45;
 855 : 06;
 856 : 34;
 857 : 05;
 858 : 34;
 859 : 05;
 85A : 65;
 85B : 05;
 85C : 62;
 85D : 04;
 85E : 42;
 85F : 04;
 860 : 24;
 861 : 03;
 862 : 42;
 863 : 04;
 864 : 73;
 865 : 03;
 866 : 70;
 867 : 01;
 868 : 42;
 869 : 04;
 86A : 24;
 86B : 03;
 86C : 45;
 86D : 02;
 86E : 70;
 86F : 01;
 870 : 40;
 871 : 02;
 872 : 70;
 873 : 01;
 874 : 45;
 875 : 02;
 876 : 40;
 877 : 02;
 878 : 70;
 879 : 01;
 87A : 45;
 87B : 02;
 87C : 45;
 87D : 02;
 87E : 40;
 87F : 02;
 880 : 42;
 881 : 04;
 882 : 24;
 883 : 03;
 884 : 70;
 885 : 01;
 886 : 45;
 887 : 02;
 888 : 45;
 889 : 02;
 88A : 45;
 88B : 02;
 88C : 45;
 88D : 02;
 88E : 45;
 88F : 02;
 890 : 45;
 891 : 02;
 892 : 45;
 893 : 02;
 894 : 45;
 895 : 02;
 896 : 24;
 897 : 03;
 898 : 53;
 899 : 03;
 89A : 45;
 89B : 02;
 89C : 45;
 89D : 02;
 89E : 24;
 89F : 03;
 8A0 : 23;
 8A1 : 04;
 8A2 : 23;
 8A3 : 04;
 8A4 : 23;
 8A5 : 04;
 8A6 : 45;
 8A7 : 04;
 8A8 : 45;
 8A9 : 04;
 8AA : 45;
 8AB : 04;
 8AC : 24;
 8AD : 03;
 8AE : 42;
 8AF : 04;
 8B0 : 24;
 8B1 : 03;
 8B2 : 24;
 8B3 : 03;
 8B4 : 45;
 8B5 : 04;
 8B6 : 46;
 8B7 : 07;
 8B8 : 36;
 8B9 : 09;
 8BA : 45;
 8BB : 0a;
 8BC : 44;
 8BD : 09;
 8BE : 46;
 8BF : 05;
 8C0 : 45;
 8C1 : 04;
 8C2 : 44;
 8C3 : 05;
 8C4 : 85;
 8C5 : 0c;
 8C6 : b4;
 8C7 : 25;
 8C8 : 94;
 8C9 : 0d;
 8CA : 46;
 8CB : 07;
 8CC : 35;
 8CD : 07;
 8CE : 45;
 8CF : 06;
 8D0 : 54;
 8D1 : 06;
 8D2 : 44;
 8D3 : 05;
 8D4 : 53;
 8D5 : 03;
 8D6 : 74;
 8D7 : 04;
 8D8 : c4;
 8D9 : 11;
 8DA : a3;
 8DB : 0d;
 8DC : 64;
 8DD : 04;
 8DE : 42;
 8DF : 04;
 8E0 : 42;
 8E1 : 04;
 8E2 : 42;
 8E3 : 04;
 8E4 : 93;
 8E5 : 06;
 8E6 : 94;
 8E7 : 04;
 8E8 : 74;
 8E9 : 02;
 8EA : b4;
 8EB : 07;
 8EC : 73;
 8ED : 03;
 8EE : 45;
 8EF : 02;
 8F0 : 45;
 8F1 : 02;
 8F2 : 45;
 8F3 : 02;
 8F4 : 45;
 8F5 : 02;
 8F6 : 24;
 8F7 : 03;
 8F8 : 45;
 8F9 : 02;
 8FA : 70;
 8FB : 01;
 8FC : 40;
 8FD : 02;
 8FE : 70;
 8FF : 01;
 900 : 45;
 901 : 04;
 902 : 45;
 903 : 04;
 904 : 40;
 905 : 02;
 906 : 45;
 907 : 02;
 908 : 40;
 909 : 02;
 90A : 45;
 90B : 02;
 90C : 23;
 90D : 04;
 90E : 45;
 90F : 02;
 910 : 45;
 911 : 02;
 912 : 45;
 913 : 02;
 914 : 24;
 915 : 03;
 916 : 45;
 917 : 02;
 918 : 24;
 919 : 03;
 91A : 45;
 91B : 04;
 91C : 45;
 91D : 02;
 91E : 45;
 91F : 02;
 920 : 23;
 921 : 04;
 922 : 23;
 923 : 04;
 924 : 42;
 925 : 05;
 926 : 45;
 927 : 04;
 928 : 42;
 929 : 04;
 92A : 45;
 92B : 04;
 92C : 64;
 92D : 04;
 92E : 42;
 92F : 04;
 930 : 24;
 931 : 03;
 932 : 24;
 933 : 03;
 934 : 24;
 935 : 03;
 936 : 45;
 937 : 06;
 938 : 45;
 939 : 09;
 93A : 45;
 93B : 09;
 93C : 45;
 93D : 09;
 93E : 46;
 93F : 07;
 940 : 46;
 941 : 07;
 942 : 46;
 943 : 07;
 944 : 55;
 945 : 07;
 946 : 53;
 947 : 06;
 948 : 54;
 949 : 06;
 94A : 45;
 94B : 08;
 94C : 46;
 94D : 07;
 94E : 34;
 94F : 05;
 950 : 74;
 951 : 04;
 952 : 74;
 953 : 04;
 954 : a4;
 955 : 09;
 956 : c3;
 957 : 15;
 958 : b4;
 959 : 0b;
 95A : 64;
 95B : 04;
 95C : 45;
 95D : 02;
 95E : 45;
 95F : 02;
 960 : 53;
 961 : 03;
 962 : b5;
 963 : 0d;
 964 : c4;
 965 : 1e;
 966 : a4;
 967 : 08;
 968 : 45;
 969 : 02;
 96A : a3;
 96B : 06;
 96C : 53;
 96D : 03;
 96E : 64;
 96F : 04;
 970 : 24;
 971 : 03;
 972 : 24;
 973 : 03;
 974 : 74;
 975 : 02;
 976 : 42;
 977 : 04;
 978 : 24;
 979 : 03;
 97A : 70;
 97B : 01;
 97C : 40;
 97D : 02;
 97E : 70;
 97F : 01;
 980 : 42;
 981 : 04;
 982 : 43;
 983 : 06;
 984 : 45;
 985 : 02;
 986 : 70;
 987 : 01;
 988 : 40;
 989 : 02;
 98A : 45;
 98B : 02;
 98C : 45;
 98D : 02;
 98E : 45;
 98F : 02;
 990 : 45;
 991 : 02;
 992 : 45;
 993 : 02;
 994 : 24;
 995 : 03;
 996 : 45;
 997 : 02;
 998 : 24;
 999 : 03;
 99A : 45;
 99B : 04;
 99C : 24;
 99D : 03;
 99E : 45;
 99F : 02;
 9A0 : 24;
 9A1 : 03;
 9A2 : 23;
 9A3 : 04;
 9A4 : 32;
 9A5 : 05;
 9A6 : 45;
 9A7 : 04;
 9A8 : 45;
 9A9 : 04;
 9AA : 44;
 9AB : 0b;
 9AC : 54;
 9AD : 0d;
 9AE : 54;
 9AF : 09;
 9B0 : 45;
 9B1 : 04;
 9B2 : 24;
 9B3 : 03;
 9B4 : 24;
 9B5 : 03;
 9B6 : 65;
 9B7 : 05;
 9B8 : 46;
 9B9 : 0a;
 9BA : 56;
 9BB : 09;
 9BC : 45;
 9BD : 09;
 9BE : 44;
 9BF : 09;
 9C0 : 45;
 9C1 : 09;
 9C2 : 54;
 9C3 : 0a;
 9C4 : 45;
 9C5 : 09;
 9C6 : 45;
 9C7 : 08;
 9C8 : 46;
 9C9 : 07;
 9CA : 44;
 9CB : 05;
 9CC : 24;
 9CD : 03;
 9CE : 40;
 9CF : 02;
 9D0 : 74;
 9D1 : 02;
 9D2 : 93;
 9D3 : 05;
 9D4 : a3;
 9D5 : 0d;
 9D6 : 93;
 9D7 : 05;
 9D8 : 40;
 9D9 : 02;
 9DA : a3;
 9DB : 06;
 9DC : d4;
 9DD : 1a;
 9DE : d4;
 9DF : 36;
 9E0 : d4;
 9E1 : 28;
 9E2 : a3;
 9E3 : 0b;
 9E4 : c4;
 9E5 : 12;
 9E6 : 94;
 9E7 : 08;
 9E8 : 62;
 9E9 : 04;
 9EA : a4;
 9EB : 09;
 9EC : 42;
 9ED : 04;
 9EE : a4;
 9EF : 09;
 9F0 : b4;
 9F1 : 15;
 9F2 : 94;
 9F3 : 08;
 9F4 : 53;
 9F5 : 03;
 9F6 : 42;
 9F7 : 04;
 9F8 : 24;
 9F9 : 03;
 9FA : 40;
 9FB : 02;
 9FC : 40;
 9FD : 02;
 9FE : 45;
 9FF : 02;
 A00 : 24;
 A01 : 03;
 A02 : 23;
 A03 : 04;
 A04 : 24;
 A05 : 03;
 A06 : 45;
 A07 : 02;
 A08 : 45;
 A09 : 02;
 A0A : 45;
 A0B : 02;
 A0C : 45;
 A0D : 02;
 A0E : 45;
 A0F : 02;
 A10 : 45;
 A11 : 02;
 A12 : 45;
 A13 : 02;
 A14 : 24;
 A15 : 03;
 A16 : 45;
 A17 : 04;
 A18 : 53;
 A19 : 03;
 A1A : 24;
 A1B : 03;
 A1C : 45;
 A1D : 02;
 A1E : 45;
 A1F : 02;
 A20 : 24;
 A21 : 03;
 A22 : 23;
 A23 : 04;
 A24 : 22;
 A25 : 06;
 A26 : 45;
 A27 : 04;
 A28 : 45;
 A29 : 06;
 A2A : 54;
 A2B : 13;
 A2C : 54;
 A2D : 15;
 A2E : 64;
 A2F : 10;
 A30 : 73;
 A31 : 09;
 A32 : 64;
 A33 : 04;
 A34 : 45;
 A35 : 02;
 A36 : 45;
 A37 : 04;
 A38 : 56;
 A39 : 09;
 A3A : 55;
 A3B : 0b;
 A3C : 55;
 A3D : 0b;
 A3E : 55;
 A3F : 09;
 A40 : 55;
 A41 : 0b;
 A42 : 55;
 A43 : 0b;
 A44 : 55;
 A45 : 09;
 A46 : 46;
 A47 : 0a;
 A48 : 44;
 A49 : 07;
 A4A : 45;
 A4B : 02;
 A4C : 40;
 A4D : 02;
 A4E : 53;
 A4F : 03;
 A50 : 74;
 A51 : 04;
 A52 : 74;
 A53 : 04;
 A54 : 42;
 A55 : 04;
 A56 : 40;
 A57 : 02;
 A58 : b4;
 A59 : 0b;
 A5A : b4;
 A5B : 10;
 A5C : b3;
 A5D : 0c;
 A5E : c4;
 A5F : 20;
 A60 : c4;
 A61 : 35;
 A62 : c4;
 A63 : 21;
 A64 : c5;
 A65 : 10;
 A66 : 62;
 A67 : 04;
 A68 : 62;
 A69 : 04;
 A6A : 74;
 A6B : 06;
 A6C : 63;
 A6D : 05;
 A6E : 24;
 A6F : 03;
 A70 : a3;
 A71 : 0b;
 A72 : a4;
 A73 : 0e;
 A74 : 53;
 A75 : 03;
 A76 : 42;
 A77 : 04;
 A78 : a4;
 A79 : 07;
 A7A : 93;
 A7B : 05;
 A7C : 53;
 A7D : 03;
 A7E : 45;
 A7F : 02;
 A80 : 45;
 A81 : 02;
 A82 : 45;
 A83 : 02;
 A84 : 45;
 A85 : 02;
 A86 : 45;
 A87 : 02;
 A88 : 45;
 A89 : 02;
 A8A : 24;
 A8B : 03;
 A8C : 45;
 A8D : 02;
 A8E : 45;
 A8F : 02;
 A90 : 45;
 A91 : 02;
 A92 : 45;
 A93 : 02;
 A94 : 24;
 A95 : 03;
 A96 : 45;
 A97 : 04;
 A98 : 24;
 A99 : 03;
 A9A : 24;
 A9B : 03;
 A9C : 24;
 A9D : 03;
 A9E : 45;
 A9F : 02;
 AA0 : 24;
 AA1 : 03;
 AA2 : 23;
 AA3 : 04;
 AA4 : 32;
 AA5 : 05;
 AA6 : 45;
 AA7 : 04;
 AA8 : 44;
 AA9 : 09;
 AAA : 54;
 AAB : 18;
 AAC : 54;
 AAD : 19;
 AAE : 54;
 AAF : 14;
 AB0 : 65;
 AB1 : 10;
 AB2 : 64;
 AB3 : 08;
 AB4 : 74;
 AB5 : 04;
 AB6 : 53;
 AB7 : 03;
 AB8 : 24;
 AB9 : 03;
 ABA : 64;
 ABB : 04;
 ABC : 46;
 ABD : 07;
 ABE : 56;
 ABF : 09;
 AC0 : 56;
 AC1 : 0b;
 AC2 : 45;
 AC3 : 0c;
 AC4 : 56;
 AC5 : 09;
 AC6 : 26;
 AC7 : 06;
 AC8 : 53;
 AC9 : 03;
 ACA : 45;
 ACB : 02;
 ACC : 53;
 ACD : 03;
 ACE : 73;
 ACF : 05;
 AD0 : 53;
 AD1 : 03;
 AD2 : b4;
 AD3 : 05;
 AD4 : a3;
 AD5 : 06;
 AD6 : c3;
 AD7 : 0d;
 AD8 : b4;
 AD9 : 0a;
 ADA : 00;
 ADB : 02;
 ADC : 93;
 ADD : 05;
 ADE : c4;
 ADF : 2c;
 AE0 : d5;
 AE1 : 52;
 AE2 : d5;
 AE3 : 32;
 AE4 : b4;
 AE5 : 19;
 AE6 : 42;
 AE7 : 04;
 AE8 : 53;
 AE9 : 06;
 AEA : a4;
 AEB : 0f;
 AEC : c4;
 AED : 20;
 AEE : b4;
 AEF : 0d;
 AF0 : 73;
 AF1 : 05;
 AF2 : 83;
 AF3 : 07;
 AF4 : 94;
 AF5 : 08;
 AF6 : 74;
 AF7 : 07;
 AF8 : c4;
 AF9 : 1f;
 AFA : d4;
 AFB : 31;
 AFC : a4;
 AFD : 07;
 AFE : 40;
 AFF : 02;
 B00 : 40;
 B01 : 02;
 B02 : 40;
 B03 : 02;
 B04 : 45;
 B05 : 02;
 B06 : 24;
 B07 : 03;
 B08 : 45;
 B09 : 02;
 B0A : 45;
 B0B : 02;
 B0C : 45;
 B0D : 02;
 B0E : 45;
 B0F : 02;
 B10 : 45;
 B11 : 02;
 B12 : 45;
 B13 : 02;
 B14 : 24;
 B15 : 03;
 B16 : 42;
 B17 : 04;
 B18 : 24;
 B19 : 03;
 B1A : 45;
 B1B : 02;
 B1C : 42;
 B1D : 04;
 B1E : 23;
 B1F : 04;
 B20 : 24;
 B21 : 03;
 B22 : 23;
 B23 : 04;
 B24 : 23;
 B25 : 04;
 B26 : 34;
 B27 : 05;
 B28 : 55;
 B29 : 09;
 B2A : 54;
 B2B : 1d;
 B2C : 44;
 B2D : 17;
 B2E : 54;
 B2F : 12;
 B30 : 54;
 B31 : 10;
 B32 : 65;
 B33 : 0c;
 B34 : 73;
 B35 : 09;
 B36 : 74;
 B37 : 06;
 B38 : 42;
 B39 : 04;
 B3A : 45;
 B3B : 02;
 B3C : 45;
 B3D : 02;
 B3E : 45;
 B3F : 04;
 B40 : 55;
 B41 : 07;
 B42 : 65;
 B43 : 08;
 B44 : 42;
 B45 : 04;
 B46 : 40;
 B47 : 02;
 B48 : 53;
 B49 : 03;
 B4A : 73;
 B4B : 03;
 B4C : 53;
 B4D : 03;
 B4E : 53;
 B4F : 03;
 B50 : 45;
 B51 : 02;
 B52 : d4;
 B53 : 23;
 B54 : c4;
 B55 : 1c;
 B56 : c4;
 B57 : 1b;
 B58 : b3;
 B59 : 09;
 B5A : b4;
 B5B : 09;
 B5C : d4;
 B5D : 36;
 B5E : c4;
 B5F : 27;
 B60 : c4;
 B61 : 20;
 B62 : 42;
 B63 : 04;
 B64 : 92;
 B65 : 05;
 B66 : 74;
 B67 : 04;
 B68 : b4;
 B69 : 10;
 B6A : b4;
 B6B : 0d;
 B6C : 93;
 B6D : 05;
 B6E : b4;
 B6F : 0d;
 B70 : c4;
 B71 : 13;
 B72 : c4;
 B73 : 1f;
 B74 : b4;
 B75 : 17;
 B76 : 53;
 B77 : 06;
 B78 : 75;
 B79 : 05;
 B7A : b3;
 B7B : 0e;
 B7C : 93;
 B7D : 05;
 B7E : 24;
 B7F : 03;
 B80 : 45;
 B81 : 02;
 B82 : 53;
 B83 : 03;
 B84 : 45;
 B85 : 02;
 B86 : 53;
 B87 : 03;
 B88 : 24;
 B89 : 03;
 B8A : 24;
 B8B : 03;
 B8C : 24;
 B8D : 03;
 B8E : 45;
 B8F : 02;
 B90 : 45;
 B91 : 02;
 B92 : 45;
 B93 : 02;
 B94 : 45;
 B95 : 02;
 B96 : 42;
 B97 : 04;
 B98 : 53;
 B99 : 03;
 B9A : 45;
 B9B : 02;
 B9C : 45;
 B9D : 02;
 B9E : 23;
 B9F : 04;
 BA0 : 32;
 BA1 : 05;
 BA2 : 23;
 BA3 : 04;
 BA4 : 23;
 BA5 : 04;
 BA6 : 44;
 BA7 : 05;
 BA8 : 44;
 BA9 : 07;
 BAA : 45;
 BAB : 17;
 BAC : 44;
 BAD : 17;
 BAE : 54;
 BAF : 11;
 BB0 : 45;
 BB1 : 0c;
 BB2 : 55;
 BB3 : 0f;
 BB4 : 64;
 BB5 : 0b;
 BB6 : 65;
 BB7 : 07;
 BB8 : 64;
 BB9 : 06;
 BBA : 64;
 BBB : 04;
 BBC : 73;
 BBD : 03;
 BBE : 74;
 BBF : 04;
 BC0 : 42;
 BC1 : 04;
 BC2 : 93;
 BC3 : 05;
 BC4 : 53;
 BC5 : 03;
 BC6 : 45;
 BC7 : 02;
 BC8 : 62;
 BC9 : 04;
 BCA : a3;
 BCB : 0c;
 BCC : 73;
 BCD : 03;
 BCE : 00;
 BCF : 01;
 BD0 : 73;
 BD1 : 03;
 BD2 : 94;
 BD3 : 06;
 BD4 : 64;
 BD5 : 04;
 BD6 : 62;
 BD7 : 04;
 BD8 : 53;
 BD9 : 03;
 BDA : d4;
 BDB : 28;
 BDC : c4;
 BDD : 1e;
 BDE : 00;
 BDF : 02;
 BE0 : 45;
 BE1 : 02;
 BE2 : b4;
 BE3 : 14;
 BE4 : d4;
 BE5 : 52;
 BE6 : d5;
 BE7 : 58;
 BE8 : d5;
 BE9 : 2a;
 BEA : d5;
 BEB : 3c;
 BEC : d5;
 BED : 27;
 BEE : d4;
 BEF : 1a;
 BF0 : c4;
 BF1 : 0b;
 BF2 : 92;
 BF3 : 04;
 BF4 : b4;
 BF5 : 0c;
 BF6 : a4;
 BF7 : 07;
 BF8 : 64;
 BF9 : 04;
 BFA : c4;
 BFB : 17;
 BFC : d5;
 BFD : 2a;
 BFE : c4;
 BFF : 14;
 C00 : c4;
 C01 : 14;
 C02 : c5;
 C03 : 15;
 C04 : 00;
 C05 : 01;
 C06 : 53;
 C07 : 03;
 C08 : 45;
 C09 : 02;
 C0A : 24;
 C0B : 03;
 C0C : 23;
 C0D : 04;
 C0E : 24;
 C0F : 03;
 C10 : 45;
 C11 : 02;
 C12 : 45;
 C13 : 02;
 C14 : 45;
 C15 : 02;
 C16 : 56;
 C17 : 03;
 C18 : 34;
 C19 : 05;
 C1A : 24;
 C1B : 03;
 C1C : 45;
 C1D : 02;
 C1E : 40;
 C1F : 02;
 C20 : 23;
 C21 : 04;
 C22 : 13;
 C23 : 05;
 C24 : 62;
 C25 : 04;
 C26 : 44;
 C27 : 05;
 C28 : 45;
 C29 : 06;
 C2A : 55;
 C2B : 11;
 C2C : 54;
 C2D : 17;
 C2E : 44;
 C2F : 0d;
 C30 : 44;
 C31 : 0b;
 C32 : 55;
 C33 : 15;
 C34 : 74;
 C35 : 10;
 C36 : 84;
 C37 : 0d;
 C38 : 74;
 C39 : 09;
 C3A : 84;
 C3B : 08;
 C3C : c3;
 C3D : 14;
 C3E : c3;
 C3F : 1f;
 C40 : a4;
 C41 : 09;
 C42 : a3;
 C43 : 09;
 C44 : 73;
 C45 : 05;
 C46 : 62;
 C47 : 04;
 C48 : a4;
 C49 : 07;
 C4A : b3;
 C4B : 13;
 C4C : b4;
 C4D : 09;
 C4E : a4;
 C4F : 07;
 C50 : 93;
 C51 : 08;
 C52 : a3;
 C53 : 06;
 C54 : c4;
 C55 : 10;
 C56 : 62;
 C57 : 04;
 C58 : d4;
 C59 : 19;
 C5A : d4;
 C5B : 3f;
 C5C : b3;
 C5D : 16;
 C5E : 42;
 C5F : 04;
 C60 : 24;
 C61 : 03;
 C62 : c4;
 C63 : 14;
 C64 : d5;
 C65 : 64;
 C66 : d5;
 C67 : 54;
 C68 : 53;
 C69 : 03;
 C6A : 74;
 C6B : 04;
 C6C : a4;
 C6D : 06;
 C6E : d4;
 C6F : 1e;
 C70 : d4;
 C71 : 15;
 C72 : c4;
 C73 : 0b;
 C74 : c4;
 C75 : 1b;
 C76 : c5;
 C77 : 23;
 C78 : c4;
 C79 : 21;
 C7A : d5;
 C7B : 52;
 C7C : c5;
 C7D : 3c;
 C7E : d5;
 C7F : 55;
 C80 : c4;
 C81 : 1b;
 C82 : d4;
 C83 : 29;
 C84 : b4;
 C85 : 07;
 C86 : 00;
 C87 : 02;
 C88 : 45;
 C89 : 02;
 C8A : 45;
 C8B : 02;
 C8C : 24;
 C8D : 03;
 C8E : 24;
 C8F : 03;
 C90 : 45;
 C91 : 02;
 C92 : 45;
 C93 : 02;
 C94 : 53;
 C95 : 03;
 C96 : 45;
 C97 : 02;
 C98 : 24;
 C99 : 03;
 C9A : 00;
 C9B : 02;
 C9C : 45;
 C9D : 02;
 C9E : 74;
 C9F : 04;
 CA0 : 53;
 CA1 : 06;
 CA2 : 23;
 CA3 : 04;
 CA4 : 44;
 CA5 : 05;
 CA6 : 43;
 CA7 : 06;
 CA8 : 44;
 CA9 : 05;
 CAA : 45;
 CAB : 0a;
 CAC : 54;
 CAD : 1c;
 CAE : 44;
 CAF : 15;
 CB0 : 54;
 CB1 : 0f;
 CB2 : 54;
 CB3 : 15;
 CB4 : 75;
 CB5 : 11;
 CB6 : 85;
 CB7 : 11;
 CB8 : 75;
 CB9 : 10;
 CBA : 74;
 CBB : 0b;
 CBC : a3;
 CBD : 0d;
 CBE : c4;
 CBF : 1a;
 CC0 : c4;
 CC1 : 1b;
 CC2 : c3;
 CC3 : 18;
 CC4 : 94;
 CC5 : 09;
 CC6 : 83;
 CC7 : 07;
 CC8 : 93;
 CC9 : 05;
 CCA : a3;
 CCB : 0b;
 CCC : c4;
 CCD : 20;
 CCE : b3;
 CCF : 0d;
 CD0 : a3;
 CD1 : 06;
 CD2 : d4;
 CD3 : 25;
 CD4 : c4;
 CD5 : 1c;
 CD6 : b4;
 CD7 : 0d;
 CD8 : c3;
 CD9 : 1d;
 CDA : d5;
 CDB : 36;
 CDC : a3;
 CDD : 09;
 CDE : 45;
 CDF : 02;
 CE0 : 74;
 CE1 : 02;
 CE2 : a3;
 CE3 : 08;
 CE4 : b4;
 CE5 : 09;
 CE6 : c4;
 CE7 : 0b;
 CE8 : d4;
 CE9 : 35;
 CEA : d5;
 CEB : 37;
 CEC : b4;
 CED : 05;
 CEE : a3;
 CEF : 06;
 CF0 : d4;
 CF1 : 22;
 CF2 : c4;
 CF3 : 0c;
 CF4 : 53;
 CF5 : 03;
 CF6 : 00;
 CF7 : 02;
 CF8 : 62;
 CF9 : 04;
 CFA : c5;
 CFB : 21;
 CFC : c5;
 CFD : 5e;
 CFE : b5;
 CFF : 10;
 D00 : a4;
 D01 : 09;
 D02 : c4;
 D03 : 09;
 D04 : d5;
 D05 : 27;
 D06 : c4;
 D07 : 0b;
 D08 : 45;
 D09 : 02;
 D0A : 45;
 D0B : 02;
 D0C : 24;
 D0D : 03;
 D0E : 45;
 D0F : 02;
 D10 : 45;
 D11 : 02;
 D12 : 53;
 D13 : 03;
 D14 : 45;
 D15 : 02;
 D16 : 00;
 D17 : 01;
 D18 : 45;
 D19 : 02;
 D1A : c5;
 D1B : 0b;
 D1C : c5;
 D1D : 2a;
 D1E : b6;
 D1F : 4d;
 D20 : a6;
 D21 : 36;
 D22 : 54;
 D23 : 07;
 D24 : 23;
 D25 : 04;
 D26 : 44;
 D27 : 07;
 D28 : 46;
 D29 : 05;
 D2A : 46;
 D2B : 05;
 D2C : 44;
 D2D : 10;
 D2E : 64;
 D2F : 1c;
 D30 : 54;
 D31 : 13;
 D32 : 43;
 D33 : 0e;
 D34 : 74;
 D35 : 0d;
 D36 : 85;
 D37 : 18;
 D38 : 85;
 D39 : 1d;
 D3A : a5;
 D3B : 1a;
 D3C : 95;
 D3D : 0d;
 D3E : a4;
 D3F : 0d;
 D40 : c4;
 D41 : 11;
 D42 : a3;
 D43 : 0b;
 D44 : 93;
 D45 : 0b;
 D46 : a4;
 D47 : 0a;
 D48 : 74;
 D49 : 04;
 D4A : b4;
 D4B : 11;
 D4C : b4;
 D4D : 15;
 D4E : a3;
 D4F : 09;
 D50 : c4;
 D51 : 13;
 D52 : c4;
 D53 : 19;
 D54 : 74;
 D55 : 04;
 D56 : 95;
 D57 : 07;
 D58 : b4;
 D59 : 0f;
 D5A : c5;
 D5B : 1e;
 D5C : b5;
 D5D : 17;
 D5E : b4;
 D5F : 10;
 D60 : 73;
 D61 : 03;
 D62 : 00;
 D63 : 01;
 D64 : a3;
 D65 : 03;
 D66 : d4;
 D67 : 18;
 D68 : d4;
 D69 : 5b;
 D6A : d5;
 D6B : 85;
 D6C : e5;
 D6D : 7e;
 D6E : d4;
 D6F : 58;
 D70 : d4;
 D71 : 3f;
 D72 : b3;
 D73 : 07;
 D74 : b4;
 D75 : 08;
 D76 : c4;
 D77 : 0b;
 D78 : d5;
 D79 : 1b;
 D7A : d5;
 D7B : 72;
 D7C : d5;
 D7D : 7a;
 D7E : c4;
 D7F : 0e;
 D80 : 62;
 D81 : 04;
 D82 : d4;
 D83 : 12;
 D84 : c3;
 D85 : 15;
 D86 : d5;
 D87 : 34;
 D88 : c4;
 D89 : 14;
 D8A : 74;
 D8B : 04;
 D8C : 24;
 D8D : 03;
 D8E : 45;
 D8F : 02;
 D90 : 64;
 D91 : 04;
 D92 : 45;
 D93 : 02;
 D94 : b5;
 D95 : 04;
 D96 : a5;
 D97 : 09;
 D98 : b5;
 D99 : 1b;
 D9A : c6;
 D9B : 4a;
 D9C : b6;
 D9D : 6a;
 D9E : 96;
 D9F : 86;
 DA0 : 96;
 DA1 : 7a;
 DA2 : 53;
 DA3 : 0d;
 DA4 : 23;
 DA5 : 04;
 DA6 : 45;
 DA7 : 06;
 DA8 : 46;
 DA9 : 05;
 DAA : 45;
 DAB : 06;
 DAC : 44;
 DAD : 05;
 DAE : 54;
 DAF : 10;
 DB0 : 54;
 DB1 : 15;
 DB2 : 54;
 DB3 : 0e;
 DB4 : 54;
 DB5 : 0b;
 DB6 : 54;
 DB7 : 0d;
 DB8 : 65;
 DB9 : 16;
 DBA : 96;
 DBB : 23;
 DBC : a6;
 DBD : 25;
 DBE : a5;
 DBF : 17;
 DC0 : 95;
 DC1 : 07;
 DC2 : 82;
 DC3 : 07;
 DC4 : b3;
 DC5 : 14;
 DC6 : a4;
 DC7 : 0b;
 DC8 : a4;
 DC9 : 10;
 DCA : 74;
 DCB : 06;
 DCC : 63;
 DCD : 05;
 DCE : 74;
 DCF : 06;
 DD0 : 62;
 DD1 : 04;
 DD2 : c4;
 DD3 : 13;
 DD4 : a3;
 DD5 : 09;
 DD6 : b4;
 DD7 : 10;
 DD8 : c5;
 DD9 : 19;
 DDA : 95;
 DDB : 07;
 DDC : 85;
 DDD : 0a;
 DDE : c4;
 DDF : 17;
 DE0 : 73;
 DE1 : 03;
 DE2 : c4;
 DE3 : 0d;
 DE4 : d4;
 DE5 : 52;
 DE6 : d5;
 DE7 : 59;
 DE8 : b4;
 DE9 : 07;
 DEA : 53;
 DEB : 03;
 DEC : d4;
 DED : 52;
 DEE : e5;
 DEF : 95;
 DF0 : e4;
 DF1 : 58;
 DF2 : a3;
 DF3 : 06;
 DF4 : d4;
 DF5 : 20;
 DF6 : d4;
 DF7 : 46;
 DF8 : a4;
 DF9 : 06;
 DFA : d4;
 DFB : 2b;
 DFC : d5;
 DFD : 68;
 DFE : d5;
 DFF : 7b;
 E00 : a4;
 E01 : 09;
 E02 : b3;
 E03 : 0c;
 E04 : d4;
 E05 : 32;
 E06 : d5;
 E07 : 4e;
 E08 : d4;
 E09 : 2c;
 E0A : 93;
 E0B : 08;
 E0C : c4;
 E0D : 0b;
 E0E : b4;
 E0F : 0b;
 E10 : c4;
 E11 : 12;
 E12 : b5;
 E13 : 0d;
 E14 : b5;
 E15 : 16;
 E16 : b5;
 E17 : 19;
 E18 : b6;
 E19 : 2d;
 E1A : b6;
 E1B : 5c;
 E1C : a6;
 E1D : 6e;
 E1E : 97;
 E1F : 8e;
 E20 : 97;
 E21 : 80;
 E22 : 54;
 E23 : 13;
 E24 : 32;
 E25 : 05;
 E26 : 46;
 E27 : 05;
 E28 : 45;
 E29 : 06;
 E2A : 45;
 E2B : 06;
 E2C : 34;
 E2D : 05;
 E2E : 44;
 E2F : 07;
 E30 : 44;
 E31 : 0f;
 E32 : 64;
 E33 : 0c;
 E34 : 54;
 E35 : 09;
 E36 : 44;
 E37 : 0a;
 E38 : 65;
 E39 : 0f;
 E3A : 85;
 E3B : 1e;
 E3C : 85;
 E3D : 1e;
 E3E : 75;
 E3F : 10;
 E40 : a4;
 E41 : 0f;
 E42 : c4;
 E43 : 23;
 E44 : c5;
 E45 : 23;
 E46 : 94;
 E47 : 09;
 E48 : 63;
 E49 : 05;
 E4A : 45;
 E4B : 02;
 E4C : 45;
 E4D : 02;
 E4E : 45;
 E4F : 02;
 E50 : b3;
 E51 : 07;
 E52 : c4;
 E53 : 1d;
 E54 : a4;
 E55 : 0a;
 E56 : 94;
 E57 : 06;
 E58 : b4;
 E59 : 10;
 E5A : 64;
 E5B : 04;
 E5C : b5;
 E5D : 0b;
 E5E : c5;
 E5F : 3f;
 E60 : d5;
 E61 : 29;
 E62 : d4;
 E63 : 3a;
 E64 : d4;
 E65 : 57;
 E66 : d5;
 E67 : 3b;
 E68 : 73;
 E69 : 03;
 E6A : 92;
 E6B : 04;
 E6C : a4;
 E6D : 07;
 E6E : c4;
 E6F : 0c;
 E70 : d4;
 E71 : 16;
 E72 : 72;
 E73 : 04;
 E74 : d4;
 E75 : 21;
 E76 : d5;
 E77 : 27;
 E78 : 00;
 E79 : 01;
 E7A : c4;
 E7B : 0b;
 E7C : c4;
 E7D : 0d;
 E7E : b4;
 E7F : 09;
 E80 : c4;
 E81 : 0e;
 E82 : a5;
 E83 : 07;
 E84 : c5;
 E85 : 25;
 E86 : d4;
 E87 : 1f;
 E88 : b4;
 E89 : 0b;
 E8A : 94;
 E8B : 09;
 E8C : d4;
 E8D : 23;
 E8E : d4;
 E8F : 36;
 E90 : d4;
 E91 : 25;
 E92 : c5;
 E93 : 2b;
 E94 : c6;
 E95 : 30;
 E96 : b6;
 E97 : 28;
 E98 : b6;
 E99 : 3c;
 E9A : b6;
 E9B : 55;
 E9C : 96;
 E9D : 65;
 E9E : 96;
 E9F : 92;
 EA0 : 97;
 EA1 : 7a;
 EA2 : 54;
 EA3 : 0e;
 EA4 : 32;
 EA5 : 05;
 EA6 : 46;
 EA7 : 07;
 EA8 : 45;
 EA9 : 08;
 EAA : 45;
 EAB : 09;
 EAC : 64;
 EAD : 08;
 EAE : 44;
 EAF : 07;
 EB0 : 64;
 EB1 : 08;
 EB2 : 85;
 EB3 : 0c;
 EB4 : 74;
 EB5 : 0a;
 EB6 : 64;
 EB7 : 0c;
 EB8 : 65;
 EB9 : 19;
 EBA : 75;
 EBB : 24;
 EBC : 75;
 EBD : 27;
 EBE : 95;
 EBF : 1a;
 EC0 : c5;
 EC1 : 32;
 EC2 : c4;
 EC3 : 32;
 EC4 : b5;
 EC5 : 17;
 EC6 : 54;
 EC7 : 07;
 EC8 : 64;
 EC9 : 06;
 ECA : 74;
 ECB : 04;
 ECC : 63;
 ECD : 05;
 ECE : a4;
 ECF : 0d;
 ED0 : b3;
 ED1 : 14;
 ED2 : a4;
 ED3 : 0b;
 ED4 : 00;
 ED5 : 02;
 ED6 : 74;
 ED7 : 04;
 ED8 : a4;
 ED9 : 0e;
 EDA : b6;
 EDB : 1a;
 EDC : 95;
 EDD : 0e;
 EDE : 86;
 EDF : 09;
 EE0 : b4;
 EE1 : 0b;
 EE2 : b4;
 EE3 : 10;
 EE4 : c4;
 EE5 : 23;
 EE6 : d4;
 EE7 : 4d;
 EE8 : e5;
 EE9 : 62;
 EEA : d5;
 EEB : 93;
 EEC : d5;
 EED : 22;
 EEE : 00;
 EEF : 01;
 EF0 : 53;
 EF1 : 03;
 EF2 : 45;
 EF3 : 02;
 EF4 : b4;
 EF5 : 07;
 EF6 : a4;
 EF7 : 07;
 EF8 : 53;
 EF9 : 03;
 EFA : a3;
 EFB : 06;
 EFC : d5;
 EFD : 1a;
 EFE : d5;
 EFF : 15;
 F00 : d4;
 F01 : 1c;
 F02 : c5;
 F03 : 0b;
 F04 : b5;
 F05 : 0d;
 F06 : c4;
 F07 : 19;
 F08 : 73;
 F09 : 03;
 F0A : b5;
 F0B : 12;
 F0C : d5;
 F0D : 47;
 F0E : d4;
 F0F : 54;
 F10 : d5;
 F11 : 47;
 F12 : c6;
 F13 : 3e;
 F14 : b6;
 F15 : 57;
 F16 : b6;
 F17 : 44;
 F18 : b6;
 F19 : 35;
 F1A : a6;
 F1B : 44;
 F1C : 96;
 F1D : 64;
 F1E : 86;
 F1F : 92;
 F20 : 96;
 F21 : 6b;
 F22 : 43;
 F23 : 06;
 F24 : 42;
 F25 : 04;
 F26 : 36;
 F27 : 07;
 F28 : 45;
 F29 : 08;
 F2A : 65;
 F2B : 0a;
 F2C : 74;
 F2D : 09;
 F2E : 55;
 F2F : 09;
 F30 : 75;
 F31 : 0d;
 F32 : 85;
 F33 : 11;
 F34 : 74;
 F35 : 0b;
 F36 : 74;
 F37 : 0d;
 F38 : 54;
 F39 : 0e;
 F3A : 54;
 F3B : 13;
 F3C : 95;
 F3D : 1c;
 F3E : b5;
 F3F : 24;
 F40 : b5;
 F41 : 21;
 F42 : a4;
 F43 : 11;
 F44 : a4;
 F45 : 10;
 F46 : 44;
 F47 : 05;
 F48 : 94;
 F49 : 09;
 F4A : a4;
 F4B : 12;
 F4C : 74;
 F4D : 07;
 F4E : 74;
 F4F : 04;
 F50 : 42;
 F51 : 04;
 F52 : a4;
 F53 : 0b;
 F54 : 93;
 F55 : 05;
 F56 : a4;
 F57 : 0b;
 F58 : c5;
 F59 : 37;
 F5A : d6;
 F5B : 61;
 F5C : b5;
 F5D : 23;
 F5E : a4;
 F5F : 0e;
 F60 : 45;
 F61 : 02;
 F62 : 65;
 F63 : 05;
 F64 : c4;
 F65 : 1c;
 F66 : d4;
 F67 : 16;
 F68 : d5;
 F69 : 51;
 F6A : d5;
 F6B : 47;
 F6C : d5;
 F6D : 1c;
 F6E : d4;
 F6F : 19;
 F70 : c4;
 F71 : 0e;
 F72 : 92;
 F73 : 04;
 F74 : 92;
 F75 : 04;
 F76 : 00;
 F77 : 02;
 F78 : 94;
 F79 : 04;
 F7A : c5;
 F7B : 09;
 F7C : a3;
 F7D : 06;
 F7E : d5;
 F7F : 92;
 F80 : d5;
 F81 : 96;
 F82 : d4;
 F83 : 3a;
 F84 : 94;
 F85 : 06;
 F86 : c4;
 F87 : 12;
 F88 : c5;
 F89 : 2c;
 F8A : c4;
 F8B : 27;
 F8C : c5;
 F8D : 5c;
 F8E : d5;
 F8F : 5f;
 F90 : c6;
 F91 : 51;
 F92 : b6;
 F93 : 4e;
 F94 : b6;
 F95 : 4b;
 F96 : b6;
 F97 : 46;
 F98 : a6;
 F99 : 35;
 F9A : 96;
 F9B : 3f;
 F9C : 96;
 F9D : 6e;
 F9E : 97;
 F9F : 89;
 FA0 : 76;
 FA1 : 20;
 FA2 : 00;
 FA3 : 04;
 FA4 : 44;
 FA5 : 05;
 FA6 : 36;
 FA7 : 07;
 FA8 : 45;
 FA9 : 0a;
 FAA : 55;
 FAB : 0b;
 FAC : 54;
 FAD : 0b;
 FAE : 45;
 FAF : 0a;
 FB0 : 66;
 FB1 : 0d;
 FB2 : 75;
 FB3 : 1d;
 FB4 : 75;
 FB5 : 11;
 FB6 : 54;
 FB7 : 0a;
 FB8 : 44;
 FB9 : 09;
 FBA : 74;
 FBB : 0d;
 FBC : a6;
 FBD : 18;
 FBE : 84;
 FBF : 0d;
 FC0 : 65;
 FC1 : 07;
 FC2 : 74;
 FC3 : 09;
 FC4 : 53;
 FC5 : 06;
 FC6 : 53;
 FC7 : 03;
 FC8 : 74;
 FC9 : 06;
 FCA : 94;
 FCB : 0b;
 FCC : 74;
 FCD : 07;
 FCE : 00;
 FCF : 02;
 FD0 : 42;
 FD1 : 04;
 FD2 : b4;
 FD3 : 10;
 FD4 : a4;
 FD5 : 0b;
 FD6 : 42;
 FD7 : 04;
 FD8 : c5;
 FD9 : 21;
 FDA : c5;
 FDB : 2d;
 FDC : a4;
 FDD : 0d;
 FDE : b5;
 FDF : 2c;
 FE0 : c4;
 FE1 : 15;
 FE2 : c4;
 FE3 : 14;
 FE4 : c4;
 FE5 : 1a;
 FE6 : d4;
 FE7 : 25;
 FE8 : b4;
 FE9 : 16;
 FEA : 00;
 FEB : 01;
 FEC : a3;
 FED : 06;
 FEE : d4;
 FEF : 3e;
 FF0 : c4;
 FF1 : 0b;
 FF2 : d3;
 FF3 : 27;
 FF4 : c3;
 FF5 : 11;
 FF6 : d4;
 FF7 : 1f;
 FF8 : d4;
 FF9 : 5e;
 FFA : d5;
 FFB : 75;
 FFC : a3;
 FFD : 08;
 FFE : d5;
 FFF : 3b;
 1000 : d5;
 1001 : 80;
 1002 : c4;
 1003 : 17;
 1004 : a4;
 1005 : 09;
 1006 : a4;
 1007 : 09;
 1008 : b5;
 1009 : 1b;
 100A : b4;
 100B : 19;
 100C : c5;
 100D : 23;
 100E : d6;
 100F : 6d;
 1010 : c6;
 1011 : 6a;
 1012 : b6;
 1013 : 58;
 1014 : a6;
 1015 : 64;
 1016 : a6;
 1017 : 71;
 1018 : a7;
 1019 : 80;
 101A : 96;
 101B : 85;
 101C : 96;
 101D : 85;
 101E : 86;
 101F : 3e;
 1020 : 33;
 1021 : 07;
 1022 : 24;
 1023 : 06;
 1024 : 64;
 1025 : 09;
 1026 : 44;
 1027 : 09;
 1028 : 55;
 1029 : 0b;
 102A : 46;
 102B : 0c;
 102C : 45;
 102D : 0d;
 102E : 45;
 102F : 0b;
 1030 : 65;
 1031 : 0e;
 1032 : 86;
 1033 : 2a;
 1034 : 95;
 1035 : 1e;
 1036 : 75;
 1037 : 0c;
 1038 : 54;
 1039 : 09;
 103A : 95;
 103B : 15;
 103C : 85;
 103D : 10;
 103E : 64;
 103F : 0b;
 1040 : a5;
 1041 : 15;
 1042 : a5;
 1043 : 20;
 1044 : a5;
 1045 : 15;
 1046 : 55;
 1047 : 07;
 1048 : 74;
 1049 : 07;
 104A : b5;
 104B : 23;
 104C : 95;
 104D : 0b;
 104E : 45;
 104F : 04;
 1050 : b4;
 1051 : 10;
 1052 : a4;
 1053 : 12;
 1054 : 42;
 1055 : 04;
 1056 : 07;
 1057 : 02;
 1058 : 45;
 1059 : 02;
 105A : 53;
 105B : 03;
 105C : 45;
 105D : 02;
 105E : c6;
 105F : 43;
 1060 : b4;
 1061 : 1b;
 1062 : c3;
 1063 : 16;
 1064 : d5;
 1065 : 3b;
 1066 : d6;
 1067 : 95;
 1068 : d4;
 1069 : 39;
 106A : 74;
 106B : 02;
 106C : d4;
 106D : 13;
 106E : d5;
 106F : 2a;
 1070 : 70;
 1071 : 01;
 1072 : d4;
 1073 : 21;
 1074 : d4;
 1075 : 22;
 1076 : e5;
 1077 : 6a;
 1078 : d5;
 1079 : 77;
 107A : d5;
 107B : 95;
 107C : c3;
 107D : 0d;
 107E : 00;
 107F : 01;
 1080 : d5;
 1081 : 5b;
 1082 : d5;
 1083 : 2c;
 1084 : 94;
 1085 : 0a;
 1086 : c5;
 1087 : 4a;
 1088 : c5;
 1089 : 37;
 108A : 23;
 108B : 04;
 108C : b4;
 108D : 10;
 108E : d6;
 108F : 7a;
 1090 : c6;
 1091 : 85;
 1092 : a6;
 1093 : 43;
 1094 : a6;
 1095 : 4e;
 1096 : a6;
 1097 : 5f;
 1098 : 96;
 1099 : 89;
 109A : 96;
 109B : 8c;
 109C : 96;
 109D : 2f;
 109E : 64;
 109F : 09;
 10A0 : 84;
 10A1 : 0b;
 10A2 : a4;
 10A3 : 16;
 10A4 : 94;
 10A5 : 0f;
 10A6 : 44;
 10A7 : 0a;
 10A8 : 66;
 10A9 : 09;
 10AA : 45;
 10AB : 0b;
 10AC : 45;
 10AD : 0b;
 10AE : 45;
 10AF : 0b;
 10B0 : 46;
 10B1 : 0c;
 10B2 : 85;
 10B3 : 15;
 10B4 : a5;
 10B5 : 15;
 10B6 : 65;
 10B7 : 09;
 10B8 : 54;
 10B9 : 0b;
 10BA : 85;
 10BB : 0f;
 10BC : 74;
 10BD : 0a;
 10BE : 64;
 10BF : 0a;
 10C0 : 65;
 10C1 : 07;
 10C2 : a5;
 10C3 : 15;
 10C4 : a5;
 10C5 : 1e;
 10C6 : a5;
 10C7 : 15;
 10C8 : b5;
 10C9 : 1d;
 10CA : 84;
 10CB : 08;
 10CC : 24;
 10CD : 03;
 10CE : 94;
 10CF : 09;
 10D0 : b4;
 10D1 : 15;
 10D2 : a5;
 10D3 : 13;
 10D4 : b5;
 10D5 : 2a;
 10D6 : b4;
 10D7 : 10;
 10D8 : 73;
 10D9 : 03;
 10DA : 74;
 10DB : 02;
 10DC : 74;
 10DD : 02;
 10DE : b6;
 10DF : 30;
 10E0 : 94;
 10E1 : 11;
 10E2 : c3;
 10E3 : 0f;
 10E4 : d5;
 10E5 : 5e;
 10E6 : d6;
 10E7 : 86;
 10E8 : d4;
 10E9 : 51;
 10EA : c4;
 10EB : 0d;
 10EC : b4;
 10ED : 08;
 10EE : d4;
 10EF : 25;
 10F0 : b3;
 10F1 : 07;
 10F2 : d4;
 10F3 : 20;
 10F4 : c4;
 10F5 : 0c;
 10F6 : d4;
 10F7 : 3a;
 10F8 : b4;
 10F9 : 09;
 10FA : d4;
 10FB : 24;
 10FC : 93;
 10FD : 05;
 10FE : c4;
 10FF : 0c;
 1100 : d6;
 1101 : 9f;
 1102 : d5;
 1103 : 6e;
 1104 : c4;
 1105 : 1a;
 1106 : c6;
 1107 : 21;
 1108 : c5;
 1109 : 1e;
 110A : c5;
 110B : 22;
 110C : c6;
 110D : 32;
 110E : c5;
 110F : 43;
 1110 : c6;
 1111 : 93;
 1112 : b6;
 1113 : 5f;
 1114 : b6;
 1115 : 4f;
 1116 : a6;
 1117 : 65;
 1118 : 96;
 1119 : 5e;
 111A : 96;
 111B : 23;
 111C : 53;
 111D : 06;
 111E : 64;
 111F : 06;
 1120 : 84;
 1121 : 0d;
 1122 : 74;
 1123 : 0d;
 1124 : 43;
 1125 : 07;
 1126 : 45;
 1127 : 0a;
 1128 : 64;
 1129 : 0a;
 112A : 65;
 112B : 0c;
 112C : 55;
 112D : 0b;
 112E : 45;
 112F : 0b;
 1130 : 36;
 1131 : 0b;
 1132 : 45;
 1133 : 09;
 1134 : 74;
 1135 : 08;
 1136 : 64;
 1137 : 08;
 1138 : 64;
 1139 : 0d;
 113A : 74;
 113B : 0d;
 113C : 74;
 113D : 0b;
 113E : 55;
 113F : 07;
 1140 : 64;
 1141 : 04;
 1142 : 74;
 1143 : 09;
 1144 : 54;
 1145 : 06;
 1146 : c6;
 1147 : 3b;
 1148 : b5;
 1149 : 20;
 114A : 00;
 114B : 02;
 114C : 53;
 114D : 03;
 114E : b4;
 114F : 13;
 1150 : 74;
 1151 : 06;
 1152 : b5;
 1153 : 1a;
 1154 : c5;
 1155 : 39;
 1156 : c5;
 1157 : 35;
 1158 : c6;
 1159 : 29;
 115A : b4;
 115B : 15;
 115C : c5;
 115D : 32;
 115E : c5;
 115F : 49;
 1160 : 94;
 1161 : 0d;
 1162 : c4;
 1163 : 11;
 1164 : d5;
 1165 : 59;
 1166 : d5;
 1167 : 80;
 1168 : d5;
 1169 : 68;
 116A : b4;
 116B : 07;
 116C : 93;
 116D : 05;
 116E : d4;
 116F : 28;
 1170 : b4;
 1171 : 0a;
 1172 : d3;
 1173 : 29;
 1174 : 74;
 1175 : 02;
 1176 : d4;
 1177 : 23;
 1178 : 93;
 1179 : 05;
 117A : 93;
 117B : 05;
 117C : b4;
 117D : 07;
 117E : d5;
 117F : 4f;
 1180 : d6;
 1181 : 88;
 1182 : d6;
 1183 : 88;
 1184 : d4;
 1185 : 28;
 1186 : b5;
 1187 : 28;
 1188 : 63;
 1189 : 05;
 118A : a4;
 118B : 0e;
 118C : c6;
 118D : 25;
 118E : a4;
 118F : 0d;
 1190 : c6;
 1191 : 3a;
 1192 : c6;
 1193 : 86;
 1194 : c5;
 1195 : 64;
 1196 : b5;
 1197 : 2c;
 1198 : b5;
 1199 : 2a;
 119A : c5;
 119B : 21;
 119C : b4;
 119D : 18;
 119E : c5;
 119F : 1e;
 11A0 : b5;
 11A1 : 22;
 11A2 : b4;
 11A3 : 25;
 11A4 : c5;
 11A5 : 31;
 11A6 : 35;
 11A7 : 0a;
 11A8 : 55;
 11A9 : 09;
 11AA : 74;
 11AB : 0d;
 11AC : 85;
 11AD : 0c;
 11AE : 74;
 11AF : 0b;
 11B0 : 65;
 11B1 : 0b;
 11B2 : 55;
 11B3 : 0b;
 11B4 : 54;
 11B5 : 09;
 11B6 : 74;
 11B7 : 08;
 11B8 : 65;
 11B9 : 0f;
 11BA : 85;
 11BB : 12;
 11BC : a5;
 11BD : 14;
 11BE : 44;
 11BF : 05;
 11C0 : 75;
 11C1 : 06;
 11C2 : 54;
 11C3 : 07;
 11C4 : 65;
 11C5 : 07;
 11C6 : c6;
 11C7 : 43;
 11C8 : c5;
 11C9 : 4b;
 11CA : b5;
 11CB : 19;
 11CC : b4;
 11CD : 19;
 11CE : b4;
 11CF : 1f;
 11D0 : 84;
 11D1 : 0a;
 11D2 : a4;
 11D3 : 10;
 11D4 : 84;
 11D5 : 08;
 11D6 : 95;
 11D7 : 07;
 11D8 : 75;
 11D9 : 05;
 11DA : 95;
 11DB : 07;
 11DC : b5;
 11DD : 1b;
 11DE : c5;
 11DF : 3f;
 11E0 : b5;
 11E1 : 14;
 11E2 : 93;
 11E3 : 05;
 11E4 : d4;
 11E5 : 2f;
 11E6 : d4;
 11E7 : 49;
 11E8 : d4;
 11E9 : 46;
 11EA : d4;
 11EB : 1e;
 11EC : 53;
 11ED : 03;
 11EE : 74;
 11EF : 04;
 11F0 : 74;
 11F1 : 02;
 11F2 : d4;
 11F3 : 32;
 11F4 : d4;
 11F5 : 1c;
 11F6 : d4;
 11F7 : 4e;
 11F8 : d3;
 11F9 : 39;
 11FA : d3;
 11FB : 11;
 11FC : c4;
 11FD : 0b;
 11FE : d4;
 11FF : 4e;
 1200 : d6;
 1201 : 99;
 1202 : c6;
 1203 : af;
 1204 : c5;
 1205 : 34;
 1206 : b5;
 1207 : 20;
 1208 : 40;
 1209 : 02;
 120A : 00;
 120B : 02;
 120C : 24;
 120D : 03;
 120E : a4;
 120F : 10;
 1210 : c6;
 1211 : 5e;
 1212 : c6;
 1213 : 83;
 1214 : c6;
 1215 : 9b;
 1216 : b5;
 1217 : 2c;
 1218 : b4;
 1219 : 14;
 121A : 84;
 121B : 08;
 121C : 53;
 121D : 06;
 121E : 44;
 121F : 05;
 1220 : 54;
 1221 : 07;
 1222 : 94;
 1223 : 10;
 1224 : c5;
 1225 : 57;
 1226 : 35;
 1227 : 09;
 1228 : 45;
 1229 : 08;
 122A : 75;
 122B : 0c;
 122C : 84;
 122D : 0e;
 122E : 74;
 122F : 0b;
 1230 : 64;
 1231 : 09;
 1232 : 46;
 1233 : 07;
 1234 : 44;
 1235 : 07;
 1236 : 64;
 1237 : 09;
 1238 : 65;
 1239 : 0f;
 123A : 85;
 123B : 0f;
 123C : 74;
 123D : 0b;
 123E : 74;
 123F : 09;
 1240 : 95;
 1241 : 10;
 1242 : 74;
 1243 : 09;
 1244 : a5;
 1245 : 17;
 1246 : a5;
 1247 : 18;
 1248 : a5;
 1249 : 1e;
 124A : a5;
 124B : 16;
 124C : a4;
 124D : 15;
 124E : 94;
 124F : 09;
 1250 : c5;
 1251 : 15;
 1252 : c5;
 1253 : 34;
 1254 : a4;
 1255 : 0a;
 1256 : 00;
 1257 : 02;
 1258 : 74;
 1259 : 04;
 125A : 85;
 125B : 0c;
 125C : 44;
 125D : 07;
 125E : 54;
 125F : 0b;
 1260 : 75;
 1261 : 05;
 1262 : 95;
 1263 : 07;
 1264 : c4;
 1265 : 18;
 1266 : d4;
 1267 : 27;
 1268 : c4;
 1269 : 1d;
 126A : c3;
 126B : 16;
 126C : b4;
 126D : 08;
 126E : a3;
 126F : 08;
 1270 : c4;
 1271 : 19;
 1272 : d4;
 1273 : 49;
 1274 : d4;
 1275 : 4a;
 1276 : d4;
 1277 : 36;
 1278 : d4;
 1279 : 36;
 127A : e4;
 127B : 44;
 127C : d4;
 127D : 4f;
 127E : e4;
 127F : 5b;
 1280 : d5;
 1281 : 93;
 1282 : d6;
 1283 : 93;
 1284 : c6;
 1285 : 3f;
 1286 : c6;
 1287 : 74;
 1288 : c5;
 1289 : 43;
 128A : c5;
 128B : 18;
 128C : b5;
 128D : 19;
 128E : b5;
 128F : 21;
 1290 : c6;
 1291 : 99;
 1292 : b6;
 1293 : 93;
 1294 : b7;
 1295 : 9b;
 1296 : a5;
 1297 : 11;
 1298 : 42;
 1299 : 04;
 129A : a4;
 129B : 0d;
 129C : c4;
 129D : 24;
 129E : b4;
 129F : 11;
 12A0 : 23;
 12A1 : 04;
 12A2 : 00;
 12A3 : 04;
 12A4 : b4;
 12A5 : 25;
 12A6 : 34;
 12A7 : 0a;
 12A8 : 44;
 12A9 : 09;
 12AA : 75;
 12AB : 0d;
 12AC : 74;
 12AD : 10;
 12AE : 64;
 12AF : 0b;
 12B0 : 54;
 12B1 : 06;
 12B2 : 43;
 12B3 : 06;
 12B4 : 44;
 12B5 : 05;
 12B6 : 65;
 12B7 : 07;
 12B8 : 54;
 12B9 : 0b;
 12BA : 53;
 12BB : 06;
 12BC : 45;
 12BD : 04;
 12BE : 75;
 12BF : 0a;
 12C0 : 75;
 12C1 : 0b;
 12C2 : 65;
 12C3 : 07;
 12C4 : 74;
 12C5 : 0b;
 12C6 : 23;
 12C7 : 04;
 12C8 : 23;
 12C9 : 04;
 12CA : 23;
 12CB : 04;
 12CC : 64;
 12CD : 06;
 12CE : 75;
 12CF : 05;
 12D0 : b5;
 12D1 : 15;
 12D2 : c5;
 12D3 : 2f;
 12D4 : b7;
 12D5 : 9f;
 12D6 : a6;
 12D7 : 44;
 12D8 : 85;
 12D9 : 0a;
 12DA : a7;
 12DB : 62;
 12DC : 86;
 12DD : 30;
 12DE : 75;
 12DF : 19;
 12E0 : 53;
 12E1 : 03;
 12E2 : 64;
 12E3 : 04;
 12E4 : 93;
 12E5 : 0b;
 12E6 : c3;
 12E7 : 16;
 12E8 : c3;
 12E9 : 0f;
 12EA : 93;
 12EB : 08;
 12EC : a2;
 12ED : 08;
 12EE : b3;
 12EF : 09;
 12F0 : a4;
 12F1 : 09;
 12F2 : b4;
 12F3 : 0c;
 12F4 : c4;
 12F5 : 12;
 12F6 : d4;
 12F7 : 35;
 12F8 : b4;
 12F9 : 09;
 12FA : b3;
 12FB : 09;
 12FC : c4;
 12FD : 11;
 12FE : d4;
 12FF : 2b;
 1300 : e5;
 1301 : 72;
 1302 : d5;
 1303 : 5c;
 1304 : a6;
 1305 : 28;
 1306 : b5;
 1307 : 31;
 1308 : c6;
 1309 : 43;
 130A : c6;
 130B : 7a;
 130C : c6;
 130D : 6e;
 130E : c5;
 130F : 22;
 1310 : d6;
 1311 : 49;
 1312 : b6;
 1313 : 5e;
 1314 : b6;
 1315 : 61;
 1316 : 00;
 1317 : 02;
 1318 : 20;
 1319 : 04;
 131A : c4;
 131B : 20;
 131C : d5;
 131D : 67;
 131E : d5;
 131F : 37;
 1320 : 63;
 1321 : 08;
 1322 : 13;
 1323 : 05;
 1324 : c5;
 1325 : 3b;
 1326 : 44;
 1327 : 08;
 1328 : 44;
 1329 : 09;
 132A : 65;
 132B : 0b;
 132C : 74;
 132D : 0d;
 132E : 45;
 132F : 0a;
 1330 : 34;
 1331 : 05;
 1332 : 43;
 1333 : 06;
 1334 : 63;
 1335 : 05;
 1336 : 65;
 1337 : 07;
 1338 : 54;
 1339 : 08;
 133A : 42;
 133B : 04;
 133C : 45;
 133D : 04;
 133E : 54;
 133F : 07;
 1340 : 74;
 1341 : 09;
 1342 : a5;
 1343 : 11;
 1344 : 95;
 1345 : 0f;
 1346 : 24;
 1347 : 06;
 1348 : 45;
 1349 : 04;
 134A : 23;
 134B : 04;
 134C : 94;
 134D : 0b;
 134E : c4;
 134F : 1d;
 1350 : c5;
 1351 : 2d;
 1352 : 00;
 1353 : 03;
 1354 : b7;
 1355 : 4b;
 1356 : a7;
 1357 : cd;
 1358 : a6;
 1359 : 31;
 135A : 95;
 135B : 15;
 135C : 86;
 135D : 30;
 135E : 75;
 135F : 17;
 1360 : 40;
 1361 : 02;
 1362 : 53;
 1363 : 03;
 1364 : a4;
 1365 : 13;
 1366 : b4;
 1367 : 14;
 1368 : b3;
 1369 : 0d;
 136A : 62;
 136B : 04;
 136C : b3;
 136D : 09;
 136E : c3;
 136F : 18;
 1370 : d4;
 1371 : 21;
 1372 : d4;
 1373 : 46;
 1374 : d4;
 1375 : 68;
 1376 : e5;
 1377 : 8c;
 1378 : e5;
 1379 : 6a;
 137A : d4;
 137B : 5e;
 137C : d3;
 137D : 1a;
 137E : d4;
 137F : 36;
 1380 : d4;
 1381 : 5e;
 1382 : a4;
 1383 : 1c;
 1384 : 66;
 1385 : 1c;
 1386 : 75;
 1387 : 06;
 1388 : 40;
 1389 : 02;
 138A : c5;
 138B : 11;
 138C : c5;
 138D : 36;
 138E : c5;
 138F : 43;
 1390 : c5;
 1391 : 46;
 1392 : b6;
 1393 : 1b;
 1394 : c5;
 1395 : 57;
 1396 : d5;
 1397 : 32;
 1398 : 93;
 1399 : 06;
 139A : 42;
 139B : 04;
 139C : d5;
 139D : 46;
 139E : c4;
 139F : 2f;
 13A0 : b4;
 13A1 : 23;
 13A2 : 43;
 13A3 : 07;
 13A4 : a4;
 13A5 : 1e;
 13A6 : 35;
 13A7 : 07;
 13A8 : 45;
 13A9 : 08;
 13AA : 54;
 13AB : 0a;
 13AC : 54;
 13AD : 0b;
 13AE : 44;
 13AF : 09;
 13B0 : 45;
 13B1 : 08;
 13B2 : 55;
 13B3 : 07;
 13B4 : 65;
 13B5 : 05;
 13B6 : 66;
 13B7 : 06;
 13B8 : 44;
 13B9 : 09;
 13BA : 45;
 13BB : 04;
 13BC : 64;
 13BD : 04;
 13BE : 55;
 13BF : 07;
 13C0 : a5;
 13C1 : 18;
 13C2 : a4;
 13C3 : 18;
 13C4 : 64;
 13C5 : 0a;
 13C6 : 34;
 13C7 : 05;
 13C8 : 42;
 13C9 : 04;
 13CA : a4;
 13CB : 12;
 13CC : a4;
 13CD : 13;
 13CE : c4;
 13CF : 28;
 13D0 : c5;
 13D1 : 5e;
 13D2 : c5;
 13D3 : 1d;
 13D4 : 92;
 13D5 : 04;
 13D6 : b7;
 13D7 : 46;
 13D8 : a7;
 13D9 : bf;
 13DA : a7;
 13DB : 89;
 13DC : a6;
 13DD : 39;
 13DE : a5;
 13DF : 18;
 13E0 : 73;
 13E1 : 03;
 13E2 : 24;
 13E3 : 03;
 13E4 : 74;
 13E5 : 04;
 13E6 : 94;
 13E7 : 08;
 13E8 : c4;
 13E9 : 1b;
 13EA : a4;
 13EB : 09;
 13EC : b3;
 13ED : 0d;
 13EE : c4;
 13EF : 1b;
 13F0 : d3;
 13F1 : 43;
 13F2 : d4;
 13F3 : 6e;
 13F4 : d4;
 13F5 : 65;
 13F6 : d4;
 13F7 : 7e;
 13F8 : e4;
 13F9 : 7b;
 13FA : d5;
 13FB : 88;
 13FC : d4;
 13FD : 30;
 13FE : d5;
 13FF : 72;
 1400 : b6;
 1401 : 99;
 1402 : a7;
 1403 : 65;
 1404 : a6;
 1405 : 77;
 1406 : 95;
 1407 : 19;
 1408 : b5;
 1409 : 1b;
 140A : c6;
 140B : 83;
 140C : c5;
 140D : 47;
 140E : b5;
 140F : 0e;
 1410 : b5;
 1411 : 23;
 1412 : c6;
 1413 : 46;
 1414 : b5;
 1415 : 0e;
 1416 : d5;
 1417 : 5e;
 1418 : d6;
 1419 : 88;
 141A : c4;
 141B : 13;
 141C : c4;
 141D : 1d;
 141E : d5;
 141F : 64;
 1420 : c5;
 1421 : 49;
 1422 : 43;
 1423 : 07;
 1424 : 54;
 1425 : 0d;
 1426 : 45;
 1427 : 06;
 1428 : 44;
 1429 : 09;
 142A : 55;
 142B : 0b;
 142C : 54;
 142D : 09;
 142E : 35;
 142F : 09;
 1430 : 44;
 1431 : 09;
 1432 : 54;
 1433 : 07;
 1434 : 74;
 1435 : 04;
 1436 : 66;
 1437 : 06;
 1438 : 54;
 1439 : 09;
 143A : 66;
 143B : 06;
 143C : 54;
 143D : 06;
 143E : 65;
 143F : 07;
 1440 : a5;
 1441 : 16;
 1442 : 64;
 1443 : 08;
 1444 : 34;
 1445 : 05;
 1446 : 24;
 1447 : 03;
 1448 : 75;
 1449 : 05;
 144A : b4;
 144B : 24;
 144C : 94;
 144D : 0a;
 144E : 95;
 144F : 07;
 1450 : c5;
 1451 : 61;
 1452 : d6;
 1453 : 8c;
 1454 : d6;
 1455 : 8c;
 1456 : c6;
 1457 : 89;
 1458 : c6;
 1459 : 6d;
 145A : b7;
 145B : 95;
 145C : b7;
 145D : ba;
 145E : b7;
 145F : 96;
 1460 : a6;
 1461 : 52;
 1462 : 42;
 1463 : 05;
 1464 : 45;
 1465 : 02;
 1466 : 53;
 1467 : 03;
 1468 : b3;
 1469 : 15;
 146A : c3;
 146B : 15;
 146C : c3;
 146D : 12;
 146E : c3;
 146F : 1f;
 1470 : e4;
 1471 : 3f;
 1472 : e4;
 1473 : 59;
 1474 : e4;
 1475 : 57;
 1476 : e4;
 1477 : 5c;
 1478 : e4;
 1479 : 77;
 147A : d4;
 147B : 77;
 147C : d4;
 147D : 29;
 147E : d5;
 147F : 59;
 1480 : b5;
 1481 : 32;
 1482 : a6;
 1483 : 46;
 1484 : a6;
 1485 : 2f;
 1486 : 75;
 1487 : 0b;
 1488 : a7;
 1489 : b7;
 148A : b7;
 148B : a5;
 148C : b4;
 148D : 16;
 148E : b5;
 148F : 0d;
 1490 : a5;
 1491 : 0d;
 1492 : c6;
 1493 : 7a;
 1494 : 64;
 1495 : 04;
 1496 : 73;
 1497 : 05;
 1498 : d6;
 1499 : 7d;
 149A : d5;
 149B : 80;
 149C : 95;
 149D : 07;
 149E : a4;
 149F : 09;
 14A0 : a4;
 14A1 : 0d;
 14A2 : 12;
 14A3 : 06;
 14A4 : 24;
 14A5 : 06;
 14A6 : 35;
 14A7 : 07;
 14A8 : 35;
 14A9 : 0b;
 14AA : 35;
 14AB : 0b;
 14AC : 46;
 14AD : 07;
 14AE : 45;
 14AF : 06;
 14B0 : 45;
 14B1 : 04;
 14B2 : 64;
 14B3 : 06;
 14B4 : 75;
 14B5 : 05;
 14B6 : 64;
 14B7 : 06;
 14B8 : 74;
 14B9 : 0a;
 14BA : 64;
 14BB : 09;
 14BC : 64;
 14BD : 06;
 14BE : 74;
 14BF : 07;
 14C0 : a4;
 14C1 : 17;
 14C2 : 74;
 14C3 : 08;
 14C4 : 44;
 14C5 : 05;
 14C6 : a5;
 14C7 : 0a;
 14C8 : b5;
 14C9 : 2c;
 14CA : c5;
 14CB : 2c;
 14CC : a4;
 14CD : 10;
 14CE : 42;
 14CF : 04;
 14D0 : b5;
 14D1 : 22;
 14D2 : b5;
 14D3 : 21;
 14D4 : c5;
 14D5 : 3e;
 14D6 : c6;
 14D7 : 71;
 14D8 : c7;
 14D9 : be;
 14DA : c6;
 14DB : 67;
 14DC : b6;
 14DD : 70;
 14DE : b7;
 14DF : b3;
 14E0 : a7;
 14E1 : 75;
 14E2 : 44;
 14E3 : 07;
 14E4 : 45;
 14E5 : 02;
 14E6 : 73;
 14E7 : 05;
 14E8 : a4;
 14E9 : 09;
 14EA : c3;
 14EB : 11;
 14EC : b3;
 14ED : 0d;
 14EE : c4;
 14EF : 1d;
 14F0 : d4;
 14F1 : 29;
 14F2 : d4;
 14F3 : 3c;
 14F4 : d4;
 14F5 : 44;
 14F6 : d3;
 14F7 : 49;
 14F8 : e4;
 14F9 : 6a;
 14FA : e5;
 14FB : 8e;
 14FC : e4;
 14FD : 5b;
 14FE : d4;
 14FF : 35;
 1500 : c5;
 1501 : 31;
 1502 : c6;
 1503 : 75;
 1504 : b6;
 1505 : 75;
 1506 : a7;
 1507 : b7;
 1508 : a7;
 1509 : 99;
 150A : 65;
 150B : 08;
 150C : b5;
 150D : 0d;
 150E : d6;
 150F : 61;
 1510 : c5;
 1511 : 1c;
 1512 : c6;
 1513 : 3c;
 1514 : 93;
 1515 : 08;
 1516 : 40;
 1517 : 02;
 1518 : 93;
 1519 : 05;
 151A : d5;
 151B : 5c;
 151C : d5;
 151D : 54;
 151E : 24;
 151F : 03;
 1520 : 00;
 1521 : 04;
 1522 : 43;
 1523 : 07;
 1524 : c5;
 1525 : 2f;
 1526 : 45;
 1527 : 0a;
 1528 : 45;
 1529 : 0b;
 152A : 35;
 152B : 0a;
 152C : 65;
 152D : 09;
 152E : 74;
 152F : 08;
 1530 : 45;
 1531 : 04;
 1532 : 74;
 1533 : 07;
 1534 : 65;
 1535 : 05;
 1536 : 43;
 1537 : 06;
 1538 : 54;
 1539 : 06;
 153A : 64;
 153B : 08;
 153C : 65;
 153D : 07;
 153E : 95;
 153F : 12;
 1540 : 95;
 1541 : 12;
 1542 : 84;
 1543 : 0c;
 1544 : a5;
 1545 : 18;
 1546 : b6;
 1547 : 35;
 1548 : c6;
 1549 : 57;
 154A : c5;
 154B : 43;
 154C : c5;
 154D : 32;
 154E : c5;
 154F : 30;
 1550 : c5;
 1551 : 3e;
 1552 : a5;
 1553 : 10;
 1554 : 00;
 1555 : 02;
 1556 : b6;
 1557 : 3a;
 1558 : b7;
 1559 : d7;
 155A : b6;
 155B : a7;
 155C : b6;
 155D : 74;
 155E : b6;
 155F : 89;
 1560 : b4;
 1561 : 14;
 1562 : 53;
 1563 : 03;
 1564 : 42;
 1565 : 04;
 1566 : 74;
 1567 : 06;
 1568 : b3;
 1569 : 10;
 156A : c4;
 156B : 11;
 156C : a3;
 156D : 0c;
 156E : c4;
 156F : 15;
 1570 : c3;
 1571 : 18;
 1572 : d4;
 1573 : 23;
 1574 : d4;
 1575 : 39;
 1576 : d4;
 1577 : 3e;
 1578 : d4;
 1579 : 44;
 157A : d4;
 157B : 68;
 157C : e4;
 157D : 6e;
 157E : e4;
 157F : 43;
 1580 : a7;
 1581 : 51;
 1582 : a8;
 1583 : f2;
 1584 : b6;
 1585 : b2;
 1586 : c6;
 1587 : 40;
 1588 : d6;
 1589 : 70;
 158A : d6;
 158B : 65;
 158C : d5;
 158D : 58;
 158E : c6;
 158F : 5f;
 1590 : d6;
 1591 : 4f;
 1592 : c5;
 1593 : 3e;
 1594 : c3;
 1595 : 15;
 1596 : a3;
 1597 : 06;
 1598 : 00;
 1599 : 01;
 159A : b5;
 159B : 0f;
 159C : d5;
 159D : 9c;
 159E : d5;
 159F : 4b;
 15A0 : a4;
 15A1 : 10;
 15A2 : c5;
 15A3 : 64;
 15A4 : c6;
 15A5 : c5;
 15A6 : 35;
 15A7 : 0b;
 15A8 : 35;
 15A9 : 0b;
 15AA : 35;
 15AB : 09;
 15AC : 74;
 15AD : 09;
 15AE : 94;
 15AF : 10;
 15B0 : 83;
 15B1 : 09;
 15B2 : 74;
 15B3 : 07;
 15B4 : 65;
 15B5 : 07;
 15B6 : 63;
 15B7 : 05;
 15B8 : 74;
 15B9 : 09;
 15BA : 96;
 15BB : 1d;
 15BC : 85;
 15BD : 14;
 15BE : 85;
 15BF : 12;
 15C0 : 23;
 15C1 : 04;
 15C2 : 75;
 15C3 : 0a;
 15C4 : a6;
 15C5 : 2b;
 15C6 : b5;
 15C7 : 2b;
 15C8 : a5;
 15C9 : 24;
 15CA : a5;
 15CB : 14;
 15CC : a5;
 15CD : 14;
 15CE : b5;
 15CF : 36;
 15D0 : c6;
 15D1 : 7d;
 15D2 : c6;
 15D3 : 71;
 15D4 : 95;
 15D5 : 11;
 15D6 : 95;
 15D7 : 0b;
 15D8 : c6;
 15D9 : 61;
 15DA : b6;
 15DB : 42;
 15DC : c5;
 15DD : 3f;
 15DE : c5;
 15DF : 3c;
 15E0 : a4;
 15E1 : 0c;
 15E2 : 74;
 15E3 : 04;
 15E4 : 42;
 15E5 : 04;
 15E6 : a4;
 15E7 : 07;
 15E8 : c4;
 15E9 : 1b;
 15EA : c4;
 15EB : 15;
 15EC : b3;
 15ED : 0d;
 15EE : c3;
 15EF : 19;
 15F0 : c4;
 15F1 : 18;
 15F2 : d4;
 15F3 : 22;
 15F4 : d4;
 15F5 : 30;
 15F6 : d4;
 15F7 : 3a;
 15F8 : d4;
 15F9 : 35;
 15FA : d3;
 15FB : 35;
 15FC : e4;
 15FD : 52;
 15FE : d4;
 15FF : 61;
 1600 : b6;
 1601 : 3e;
 1602 : b7;
 1603 : c2;
 1604 : c6;
 1605 : 5c;
 1606 : d6;
 1607 : 86;
 1608 : c6;
 1609 : c6;
 160A : c7;
 160B : c6;
 160C : c6;
 160D : c5;
 160E : d6;
 160F : 6e;
 1610 : c5;
 1611 : 70;
 1612 : b5;
 1613 : 12;
 1614 : c4;
 1615 : 14;
 1616 : 74;
 1617 : 04;
 1618 : 00;
 1619 : 02;
 161A : 74;
 161B : 04;
 161C : d5;
 161D : 75;
 161E : d5;
 161F : a5;
 1620 : d5;
 1621 : 8e;
 1622 : d6;
 1623 : ab;
 1624 : d6;
 1625 : b0;
 1626 : 35;
 1627 : 0c;
 1628 : 35;
 1629 : 0b;
 162A : 46;
 162B : 07;
 162C : 84;
 162D : 0a;
 162E : 74;
 162F : 0a;
 1630 : 74;
 1631 : 09;
 1632 : 54;
 1633 : 07;
 1634 : 74;
 1635 : 08;
 1636 : 65;
 1637 : 07;
 1638 : 86;
 1639 : 15;
 163A : 86;
 163B : 24;
 163C : 54;
 163D : 0a;
 163E : 75;
 163F : 0e;
 1640 : 24;
 1641 : 03;
 1642 : 65;
 1643 : 09;
 1644 : a6;
 1645 : 29;
 1646 : a5;
 1647 : 21;
 1648 : 42;
 1649 : 04;
 164A : 00;
 164B : 02;
 164C : 45;
 164D : 04;
 164E : 65;
 164F : 07;
 1650 : a6;
 1651 : 44;
 1652 : b6;
 1653 : 61;
 1654 : c5;
 1655 : 3a;
 1656 : b4;
 1657 : 15;
 1658 : a5;
 1659 : 0d;
 165A : a5;
 165B : 07;
 165C : c5;
 165D : 24;
 165E : c5;
 165F : 24;
 1660 : b4;
 1661 : 10;
 1662 : 63;
 1663 : 05;
 1664 : 42;
 1665 : 04;
 1666 : 74;
 1667 : 04;
 1668 : c4;
 1669 : 1b;
 166A : b3;
 166B : 15;
 166C : a4;
 166D : 0a;
 166E : b4;
 166F : 0d;
 1670 : a3;
 1671 : 0d;
 1672 : b4;
 1673 : 10;
 1674 : c4;
 1675 : 1c;
 1676 : c4;
 1677 : 25;
 1678 : d4;
 1679 : 37;
 167A : d4;
 167B : 4f;
 167C : d4;
 167D : 3f;
 167E : e5;
 167F : 78;
 1680 : c5;
 1681 : 36;
 1682 : d5;
 1683 : 61;
 1684 : c5;
 1685 : 42;
 1686 : c5;
 1687 : 44;
 1688 : b5;
 1689 : 21;
 168A : b5;
 168B : 14;
 168C : c5;
 168D : 2f;
 168E : d6;
 168F : 88;
 1690 : c6;
 1691 : 4e;
 1692 : 00;
 1693 : 02;
 1694 : 24;
 1695 : 03;
 1696 : 00;
 1697 : 02;
 1698 : b4;
 1699 : 0b;
 169A : d5;
 169B : 57;
 169C : d5;
 169D : 9e;
 169E : d6;
 169F : ac;
 16A0 : d6;
 16A1 : ac;
 16A2 : c5;
 16A3 : 92;
 16A4 : b5;
 16A5 : 1a;
 16A6 : 35;
 16A7 : 0b;
 16A8 : 35;
 16A9 : 0b;
 16AA : 65;
 16AB : 09;
 16AC : 84;
 16AD : 0b;
 16AE : 44;
 16AF : 07;
 16B0 : 65;
 16B1 : 07;
 16B2 : 54;
 16B3 : 07;
 16B4 : 84;
 16B5 : 0b;
 16B6 : 84;
 16B7 : 0b;
 16B8 : 65;
 16B9 : 0d;
 16BA : 65;
 16BB : 12;
 16BC : 43;
 16BD : 06;
 16BE : 65;
 16BF : 0e;
 16C0 : 65;
 16C1 : 0e;
 16C2 : 42;
 16C3 : 04;
 16C4 : 75;
 16C5 : 0b;
 16C6 : 96;
 16C7 : 22;
 16C8 : 96;
 16C9 : 10;
 16CA : a6;
 16CB : 29;
 16CC : a6;
 16CD : 36;
 16CE : 96;
 16CF : 2a;
 16D0 : 85;
 16D1 : 18;
 16D2 : 65;
 16D3 : 09;
 16D4 : b6;
 16D5 : 3a;
 16D6 : c6;
 16D7 : 58;
 16D8 : b5;
 16D9 : 28;
 16DA : c5;
 16DB : 31;
 16DC : c5;
 16DD : 37;
 16DE : c5;
 16DF : 36;
 16E0 : b4;
 16E1 : 0f;
 16E2 : 74;
 16E3 : 04;
 16E4 : 63;
 16E5 : 05;
 16E6 : b4;
 16E7 : 0b;
 16E8 : b4;
 16E9 : 0d;
 16EA : a4;
 16EB : 0a;
 16EC : a4;
 16ED : 09;
 16EE : 94;
 16EF : 08;
 16F0 : a4;
 16F1 : 0a;
 16F2 : b4;
 16F3 : 10;
 16F4 : c4;
 16F5 : 15;
 16F6 : c4;
 16F7 : 1e;
 16F8 : d4;
 16F9 : 27;
 16FA : d4;
 16FB : 2f;
 16FC : d4;
 16FD : 2b;
 16FE : e4;
 16FF : 58;
 1700 : d4;
 1701 : 34;
 1702 : c4;
 1703 : 2f;
 1704 : c5;
 1705 : 61;
 1706 : c6;
 1707 : 30;
 1708 : 00;
 1709 : 02;
 170A : c5;
 170B : 13;
 170C : c6;
 170D : 46;
 170E : c6;
 170F : b0;
 1710 : c6;
 1711 : 49;
 1712 : 73;
 1713 : 03;
 1714 : 24;
 1715 : 03;
 1716 : 53;
 1717 : 03;
 1718 : d4;
 1719 : 3f;
 171A : d5;
 171B : 95;
 171C : d5;
 171D : 90;
 171E : d5;
 171F : 44;
 1720 : d5;
 1721 : 3f;
 1722 : c5;
 1723 : 88;
 1724 : b4;
 1725 : 18;
 1726 : 45;
 1727 : 0c;
 1728 : 44;
 1729 : 09;
 172A : 74;
 172B : 09;
 172C : 64;
 172D : 09;
 172E : 54;
 172F : 07;
 1730 : 65;
 1731 : 07;
 1732 : 54;
 1733 : 07;
 1734 : 74;
 1735 : 08;
 1736 : 84;
 1737 : 0a;
 1738 : 54;
 1739 : 06;
 173A : 54;
 173B : 09;
 173C : 45;
 173D : 04;
 173E : 76;
 173F : 10;
 1740 : 66;
 1741 : 1e;
 1742 : 23;
 1743 : 04;
 1744 : 54;
 1745 : 07;
 1746 : 97;
 1747 : 32;
 1748 : 97;
 1749 : 55;
 174A : 96;
 174B : 44;
 174C : 86;
 174D : 2c;
 174E : 86;
 174F : 35;
 1750 : 86;
 1751 : 36;
 1752 : 85;
 1753 : 13;
 1754 : 95;
 1755 : 15;
 1756 : 75;
 1757 : 0d;
 1758 : a6;
 1759 : 28;
 175A : b5;
 175B : 30;
 175C : a5;
 175D : 12;
 175E : b5;
 175F : 18;
 1760 : a3;
 1761 : 0d;
 1762 : 64;
 1763 : 06;
 1764 : c3;
 1765 : 10;
 1766 : c5;
 1767 : 25;
 1768 : a4;
 1769 : 0c;
 176A : 72;
 176B : 04;
 176C : 92;
 176D : 05;
 176E : a4;
 176F : 09;
 1770 : a3;
 1771 : 0e;
 1772 : b4;
 1773 : 10;
 1774 : b4;
 1775 : 10;
 1776 : b3;
 1777 : 15;
 1778 : c3;
 1779 : 18;
 177A : c4;
 177B : 1b;
 177C : d4;
 177D : 2b;
 177E : d3;
 177F : 2d;
 1780 : d4;
 1781 : 3e;
 1782 : c5;
 1783 : 2b;
 1784 : d5;
 1785 : 28;
 1786 : c5;
 1787 : 6b;
 1788 : c6;
 1789 : 72;
 178A : c6;
 178B : a9;
 178C : b7;
 178D : c7;
 178E : c7;
 178F : d3;
 1790 : c6;
 1791 : 5f;
 1792 : d5;
 1793 : 3f;
 1794 : d4;
 1795 : 31;
 1796 : d4;
 1797 : 3b;
 1798 : d4;
 1799 : 7a;
 179A : d5;
 179B : 83;
 179C : c4;
 179D : 1b;
 179E : 00;
 179F : 02;
 17A0 : 00;
 17A1 : 03;
 17A2 : c5;
 17A3 : 3a;
 17A4 : c5;
 17A5 : 64;
 17A6 : 45;
 17A7 : 0c;
 17A8 : 44;
 17A9 : 09;
 17AA : 74;
 17AB : 0b;
 17AC : 54;
 17AD : 08;
 17AE : 64;
 17AF : 08;
 17B0 : 55;
 17B1 : 07;
 17B2 : 44;
 17B3 : 07;
 17B4 : 66;
 17B5 : 06;
 17B6 : 64;
 17B7 : 08;
 17B8 : 54;
 17B9 : 09;
 17BA : 64;
 17BB : 0b;
 17BC : 65;
 17BD : 0d;
 17BE : 66;
 17BF : 3a;
 17C0 : 55;
 17C1 : 28;
 17C2 : 54;
 17C3 : 07;
 17C4 : 76;
 17C5 : 1f;
 17C6 : 66;
 17C7 : 2d;
 17C8 : 65;
 17C9 : 1c;
 17CA : 45;
 17CB : 0d;
 17CC : 00;
 17CD : 01;
 17CE : 44;
 17CF : 05;
 17D0 : 55;
 17D1 : 16;
 17D2 : 86;
 17D3 : 37;
 17D4 : 96;
 17D5 : 40;
 17D6 : 86;
 17D7 : 3f;
 17D8 : a7;
 17D9 : 6a;
 17DA : a5;
 17DB : 27;
 17DC : a4;
 17DD : 10;
 17DE : b4;
 17DF : 10;
 17E0 : 74;
 17E1 : 07;
 17E2 : 94;
 17E3 : 09;
 17E4 : c4;
 17E5 : 20;
 17E6 : c5;
 17E7 : 3a;
 17E8 : 94;
 17E9 : 09;
 17EA : 64;
 17EB : 04;
 17EC : a4;
 17ED : 07;
 17EE : a4;
 17EF : 0f;
 17F0 : a3;
 17F1 : 0d;
 17F2 : a4;
 17F3 : 0b;
 17F4 : a4;
 17F5 : 0d;
 17F6 : b4;
 17F7 : 11;
 17F8 : c4;
 17F9 : 16;
 17FA : b3;
 17FB : 12;
 17FC : c4;
 17FD : 1b;
 17FE : d5;
 17FF : 27;
 1800 : d4;
 1801 : 2d;
 1802 : c5;
 1803 : 3a;
 1804 : c6;
 1805 : 5c;
 1806 : c6;
 1807 : 61;
 1808 : c7;
 1809 : c3;
 180A : c7;
 180B : 70;
 180C : b6;
 180D : 61;
 180E : b7;
 180F : c8;
 1810 : c6;
 1811 : 3e;
 1812 : b3;
 1813 : 0c;
 1814 : e4;
 1815 : 47;
 1816 : e5;
 1817 : 7b;
 1818 : d4;
 1819 : 72;
 181A : d5;
 181B : 3c;
 181C : 73;
 181D : 03;
 181E : 00;
 181F : 02;
 1820 : 00;
 1821 : 03;
 1822 : 84;
 1823 : 0c;
 1824 : c6;
 1825 : 96;
 1826 : 44;
 1827 : 0a;
 1828 : 75;
 1829 : 0b;
 182A : 74;
 182B : 10;
 182C : 54;
 182D : 07;
 182E : 54;
 182F : 06;
 1830 : 55;
 1831 : 07;
 1832 : 54;
 1833 : 06;
 1834 : 84;
 1835 : 0a;
 1836 : 65;
 1837 : 09;
 1838 : 74;
 1839 : 09;
 183A : 74;
 183B : 08;
 183C : 76;
 183D : 1b;
 183E : 66;
 183F : 52;
 1840 : 76;
 1841 : 59;
 1842 : 76;
 1843 : 49;
 1844 : 66;
 1845 : 32;
 1846 : 66;
 1847 : 27;
 1848 : 53;
 1849 : 06;
 184A : 44;
 184B : 09;
 184C : 65;
 184D : 0f;
 184E : 54;
 184F : 06;
 1850 : 23;
 1851 : 04;
 1852 : 42;
 1853 : 04;
 1854 : 65;
 1855 : 23;
 1856 : 76;
 1857 : 59;
 1858 : 86;
 1859 : 46;
 185A : a6;
 185B : 2b;
 185C : a5;
 185D : 19;
 185E : a4;
 185F : 0c;
 1860 : a4;
 1861 : 14;
 1862 : b4;
 1863 : 22;
 1864 : c4;
 1865 : 1a;
 1866 : c5;
 1867 : 35;
 1868 : b4;
 1869 : 17;
 186A : 93;
 186B : 05;
 186C : 83;
 186D : 07;
 186E : 93;
 186F : 0b;
 1870 : a4;
 1871 : 0b;
 1872 : b4;
 1873 : 11;
 1874 : b4;
 1875 : 13;
 1876 : b4;
 1877 : 16;
 1878 : c4;
 1879 : 1f;
 187A : c4;
 187B : 19;
 187C : c4;
 187D : 13;
 187E : c4;
 187F : 1d;
 1880 : d4;
 1881 : 36;
 1882 : d5;
 1883 : 6b;
 1884 : c7;
 1885 : 8c;
 1886 : b6;
 1887 : a5;
 1888 : b7;
 1889 : 96;
 188A : a7;
 188B : bf;
 188C : a6;
 188D : 35;
 188E : c6;
 188F : 58;
 1890 : a5;
 1891 : 15;
 1892 : 00;
 1893 : 02;
 1894 : 45;
 1895 : 04;
 1896 : d4;
 1897 : 36;
 1898 : d4;
 1899 : 47;
 189A : 73;
 189B : 03;
 189C : 24;
 189D : 03;
 189E : d4;
 189F : 1c;
 18A0 : c3;
 18A1 : 19;
 18A2 : 53;
 18A3 : 07;
 18A4 : c5;
 18A5 : 61;
 18A6 : 45;
 18A7 : 06;
 18A8 : 76;
 18A9 : 0c;
 18AA : 65;
 18AB : 0f;
 18AC : 65;
 18AD : 07;
 18AE : 54;
 18AF : 06;
 18B0 : 55;
 18B1 : 07;
 18B2 : 54;
 18B3 : 06;
 18B4 : 94;
 18B5 : 0e;
 18B6 : 74;
 18B7 : 0a;
 18B8 : 64;
 18B9 : 09;
 18BA : 84;
 18BB : 0a;
 18BC : 75;
 18BD : 10;
 18BE : 66;
 18BF : 42;
 18C0 : 66;
 18C1 : 6d;
 18C2 : 76;
 18C3 : 75;
 18C4 : 44;
 18C5 : 10;
 18C6 : 66;
 18C7 : 10;
 18C8 : 76;
 18C9 : 3c;
 18CA : 76;
 18CB : 44;
 18CC : 76;
 18CD : 4f;
 18CE : 75;
 18CF : 46;
 18D0 : 76;
 18D1 : 3e;
 18D2 : 66;
 18D3 : 40;
 18D4 : 45;
 18D5 : 23;
 18D6 : 45;
 18D7 : 13;
 18D8 : 55;
 18D9 : 11;
 18DA : 95;
 18DB : 1c;
 18DC : 95;
 18DD : 12;
 18DE : 84;
 18DF : 0a;
 18E0 : b5;
 18E1 : 1e;
 18E2 : b4;
 18E3 : 20;
 18E4 : b4;
 18E5 : 1f;
 18E6 : b4;
 18E7 : 24;
 18E8 : c5;
 18E9 : 24;
 18EA : a4;
 18EB : 0b;
 18EC : 73;
 18ED : 05;
 18EE : 74;
 18EF : 06;
 18F0 : 94;
 18F1 : 0c;
 18F2 : b5;
 18F3 : 17;
 18F4 : c5;
 18F5 : 20;
 18F6 : c6;
 18F7 : 36;
 18F8 : c6;
 18F9 : 52;
 18FA : c5;
 18FB : 37;
 18FC : c5;
 18FD : 21;
 18FE : c4;
 18FF : 23;
 1900 : d5;
 1901 : 47;
 1902 : d6;
 1903 : 93;
 1904 : c6;
 1905 : 62;
 1906 : b7;
 1907 : a1;
 1908 : 97;
 1909 : cf;
 190A : 97;
 190B : d2;
 190C : a6;
 190D : 5b;
 190E : a6;
 190F : 2b;
 1910 : 96;
 1911 : 1d;
 1912 : 24;
 1913 : 03;
 1914 : 45;
 1915 : 02;
 1916 : b4;
 1917 : 0d;
 1918 : d4;
 1919 : 47;
 191A : 62;
 191B : 04;
 191C : b4;
 191D : 0b;
 191E : d4;
 191F : 75;
 1920 : d5;
 1921 : 7e;
 1922 : c5;
 1923 : 2c;
 1924 : 64;
 1925 : 09;
 1926 : 34;
 1927 : 05;
 1928 : 75;
 1929 : 0d;
 192A : 75;
 192B : 0f;
 192C : 54;
 192D : 07;
 192E : 54;
 192F : 07;
 1930 : 55;
 1931 : 07;
 1932 : 44;
 1933 : 05;
 1934 : 84;
 1935 : 0b;
 1936 : 74;
 1937 : 0d;
 1938 : 75;
 1939 : 0d;
 193A : 85;
 193B : 10;
 193C : 76;
 193D : 20;
 193E : 66;
 193F : 3a;
 1940 : 66;
 1941 : 5c;
 1942 : 66;
 1943 : 64;
 1944 : 54;
 1945 : 11;
 1946 : 24;
 1947 : 03;
 1948 : 76;
 1949 : 4e;
 194A : 66;
 194B : 4f;
 194C : 35;
 194D : 09;
 194E : 55;
 194F : 17;
 1950 : 66;
 1951 : 4e;
 1952 : 65;
 1953 : 67;
 1954 : 44;
 1955 : 18;
 1956 : 44;
 1957 : 0b;
 1958 : 64;
 1959 : 0d;
 195A : a6;
 195B : 20;
 195C : a5;
 195D : 12;
 195E : 83;
 195F : 09;
 1960 : b5;
 1961 : 16;
 1962 : c5;
 1963 : 22;
 1964 : c4;
 1965 : 28;
 1966 : c5;
 1967 : 22;
 1968 : a6;
 1969 : 40;
 196A : 95;
 196B : 2c;
 196C : 94;
 196D : 06;
 196E : a4;
 196F : 0d;
 1970 : b5;
 1971 : 29;
 1972 : b6;
 1973 : 51;
 1974 : b7;
 1975 : 7e;
 1976 : a7;
 1977 : a4;
 1978 : a7;
 1979 : bb;
 197A : b7;
 197B : 99;
 197C : b6;
 197D : 61;
 197E : c4;
 197F : 37;
 1980 : d5;
 1981 : 3e;
 1982 : d6;
 1983 : 89;
 1984 : d6;
 1985 : 7a;
 1986 : a6;
 1987 : 5e;
 1988 : 96;
 1989 : 78;
 198A : 97;
 198B : ec;
 198C : 97;
 198D : 75;
 198E : b5;
 198F : 51;
 1990 : c6;
 1991 : 4d;
 1992 : 53;
 1993 : 03;
 1994 : 74;
 1995 : 04;
 1996 : 73;
 1997 : 03;
 1998 : d5;
 1999 : 47;
 199A : c4;
 199B : 16;
 199C : d4;
 199D : 15;
 199E : d4;
 199F : 75;
 19A0 : d5;
 19A1 : 6b;
 19A2 : c5;
 19A3 : 5b;
 19A4 : 53;
 19A5 : 06;
 19A6 : 75;
 19A7 : 0b;
 19A8 : 95;
 19A9 : 15;
 19AA : 75;
 19AB : 10;
 19AC : 64;
 19AD : 09;
 19AE : 54;
 19AF : 07;
 19B0 : 56;
 19B1 : 06;
 19B2 : 34;
 19B3 : 05;
 19B4 : 84;
 19B5 : 09;
 19B6 : a5;
 19B7 : 15;
 19B8 : 95;
 19B9 : 1b;
 19BA : 86;
 19BB : 12;
 19BC : 76;
 19BD : 29;
 19BE : 45;
 19BF : 1d;
 19C0 : 55;
 19C1 : 1e;
 19C2 : 55;
 19C3 : 15;
 19C4 : 44;
 19C5 : 08;
 19C6 : 24;
 19C7 : 03;
 19C8 : 66;
 19C9 : 3c;
 19CA : 65;
 19CB : 44;
 19CC : 23;
 19CD : 04;
 19CE : 24;
 19CF : 03;
 19D0 : 45;
 19D1 : 20;
 19D2 : 55;
 19D3 : 4d;
 19D4 : 45;
 19D5 : 24;
 19D6 : 54;
 19D7 : 19;
 19D8 : 76;
 19D9 : 3a;
 19DA : 96;
 19DB : 39;
 19DC : 94;
 19DD : 11;
 19DE : b5;
 19DF : 12;
 19E0 : b5;
 19E1 : 1a;
 19E2 : b5;
 19E3 : 21;
 19E4 : c4;
 19E5 : 22;
 19E6 : c6;
 19E7 : 55;
 19E8 : 86;
 19E9 : 37;
 19EA : 75;
 19EB : 16;
 19EC : a5;
 19ED : 14;
 19EE : a5;
 19EF : 11;
 19F0 : 95;
 19F1 : 19;
 19F2 : 86;
 19F3 : 3b;
 19F4 : 87;
 19F5 : 8f;
 19F6 : 87;
 19F7 : 99;
 19F8 : 87;
 19F9 : a9;
 19FA : 87;
 19FB : b9;
 19FC : 97;
 19FD : af;
 19FE : b6;
 19FF : 70;
 1A00 : c5;
 1A01 : 57;
 1A02 : b7;
 1A03 : a2;
 1A04 : c5;
 1A05 : 6e;
 1A06 : b5;
 1A07 : 37;
 1A08 : 97;
 1A09 : 5b;
 1A0A : 97;
 1A0B : b0;
 1A0C : 97;
 1A0D : bf;
 1A0E : b7;
 1A0F : 9b;
 1A10 : d6;
 1A11 : a4;
 1A12 : d5;
 1A13 : 2c;
 1A14 : 64;
 1A15 : 04;
 1A16 : 07;
 1A17 : 02;
 1A18 : d4;
 1A19 : 21;
 1A1A : c4;
 1A1B : 22;
 1A1C : d4;
 1A1D : 18;
 1A1E : d4;
 1A1F : 5c;
 1A20 : 74;
 1A21 : 06;
 1A22 : b4;
 1A23 : 22;
 1A24 : b4;
 1A25 : 1b;
 1A26 : 75;
 1A27 : 18;
 1A28 : 65;
 1A29 : 10;
 1A2A : 64;
 1A2B : 0d;
 1A2C : 74;
 1A2D : 0b;
 1A2E : 65;
 1A2F : 07;
 1A30 : 44;
 1A31 : 07;
 1A32 : 34;
 1A33 : 05;
 1A34 : 65;
 1A35 : 07;
 1A36 : 85;
 1A37 : 0e;
 1A38 : 95;
 1A39 : 23;
 1A3A : 96;
 1A3B : 1e;
 1A3C : 55;
 1A3D : 1a;
 1A3E : 44;
 1A3F : 09;
 1A40 : 56;
 1A41 : 03;
 1A42 : 64;
 1A43 : 11;
 1A44 : 34;
 1A45 : 0b;
 1A46 : 23;
 1A47 : 04;
 1A48 : 65;
 1A49 : 15;
 1A4A : 65;
 1A4B : 37;
 1A4C : 54;
 1A4D : 13;
 1A4E : 55;
 1A4F : 1e;
 1A50 : 43;
 1A51 : 15;
 1A52 : 45;
 1A53 : 21;
 1A54 : 45;
 1A55 : 42;
 1A56 : 55;
 1A57 : 3c;
 1A58 : 76;
 1A59 : 47;
 1A5A : 65;
 1A5B : 29;
 1A5C : a4;
 1A5D : 10;
 1A5E : b4;
 1A5F : 1d;
 1A60 : b4;
 1A61 : 1a;
 1A62 : b4;
 1A63 : 20;
 1A64 : c5;
 1A65 : 34;
 1A66 : c6;
 1A67 : 7b;
 1A68 : 86;
 1A69 : 70;
 1A6A : 23;
 1A6B : 04;
 1A6C : 54;
 1A6D : 06;
 1A6E : 42;
 1A6F : 04;
 1A70 : 42;
 1A71 : 04;
 1A72 : 43;
 1A73 : 09;
 1A74 : 43;
 1A75 : 0f;
 1A76 : 43;
 1A77 : 14;
 1A78 : 54;
 1A79 : 14;
 1A7A : 54;
 1A7B : 20;
 1A7C : 55;
 1A7D : 1d;
 1A7E : 65;
 1A7F : 13;
 1A80 : b5;
 1A81 : 34;
 1A82 : a7;
 1A83 : a8;
 1A84 : c6;
 1A85 : 9b;
 1A86 : c5;
 1A87 : 46;
 1A88 : 53;
 1A89 : 06;
 1A8A : 97;
 1A8B : 88;
 1A8C : 97;
 1A8D : d9;
 1A8E : 96;
 1A8F : 1a;
 1A90 : c4;
 1A91 : 17;
 1A92 : d5;
 1A93 : 72;
 1A94 : c5;
 1A95 : 1a;
 1A96 : 20;
 1A97 : 03;
 1A98 : c4;
 1A99 : 1a;
 1A9A : d4;
 1A9B : 31;
 1A9C : 62;
 1A9D : 04;
 1A9E : d4;
 1A9F : 35;
 1AA0 : b4;
 1AA1 : 10;
 1AA2 : a4;
 1AA3 : 11;
 1AA4 : c5;
 1AA5 : 5f;
 1AA6 : 65;
 1AA7 : 12;
 1AA8 : 34;
 1AA9 : 05;
 1AAA : 45;
 1AAB : 06;
 1AAC : 54;
 1AAD : 06;
 1AAE : 55;
 1AAF : 07;
 1AB0 : 54;
 1AB1 : 06;
 1AB2 : 45;
 1AB3 : 04;
 1AB4 : 54;
 1AB5 : 06;
 1AB6 : 76;
 1AB7 : 10;
 1AB8 : 96;
 1AB9 : 2c;
 1ABA : 96;
 1ABB : 1e;
 1ABC : 44;
 1ABD : 0a;
 1ABE : 55;
 1ABF : 11;
 1AC0 : 42;
 1AC1 : 04;
 1AC2 : 64;
 1AC3 : 0c;
 1AC4 : 54;
 1AC5 : 0e;
 1AC6 : 65;
 1AC7 : 19;
 1AC8 : 65;
 1AC9 : 1a;
 1ACA : 87;
 1ACB : 1a;
 1ACC : 86;
 1ACD : 23;
 1ACE : 55;
 1ACF : 31;
 1AD0 : 55;
 1AD1 : 1c;
 1AD2 : 44;
 1AD3 : 1a;
 1AD4 : 44;
 1AD5 : 18;
 1AD6 : 55;
 1AD7 : 25;
 1AD8 : 76;
 1AD9 : 39;
 1ADA : 86;
 1ADB : 47;
 1ADC : 95;
 1ADD : 0b;
 1ADE : 83;
 1ADF : 07;
 1AE0 : b5;
 1AE1 : 12;
 1AE2 : c5;
 1AE3 : 2f;
 1AE4 : c6;
 1AE5 : 54;
 1AE6 : b6;
 1AE7 : 88;
 1AE8 : 87;
 1AE9 : ba;
 1AEA : 66;
 1AEB : 39;
 1AEC : 00;
 1AED : 01;
 1AEE : 45;
 1AEF : 02;
 1AF0 : 45;
 1AF1 : 02;
 1AF2 : 63;
 1AF3 : 06;
 1AF4 : 74;
 1AF5 : 0d;
 1AF6 : 43;
 1AF7 : 0c;
 1AF8 : 43;
 1AF9 : 07;
 1AFA : 73;
 1AFB : 0b;
 1AFC : 83;
 1AFD : 0c;
 1AFE : 20;
 1AFF : 03;
 1B00 : 75;
 1B01 : 1d;
 1B02 : a7;
 1B03 : c2;
 1B04 : d6;
 1B05 : 9b;
 1B06 : d6;
 1B07 : 65;
 1B08 : 96;
 1B09 : 58;
 1B0A : 87;
 1B0B : da;
 1B0C : 86;
 1B0D : 3c;
 1B0E : 00;
 1B0F : 01;
 1B10 : 00;
 1B11 : 02;
 1B12 : b4;
 1B13 : 0e;
 1B14 : d5;
 1B15 : 71;
 1B16 : d5;
 1B17 : 3b;
 1B18 : d4;
 1B19 : 4f;
 1B1A : d4;
 1B1B : 7b;
 1B1C : d4;
 1B1D : 21;
 1B1E : d4;
 1B1F : 1d;
 1B20 : d4;
 1B21 : 42;
 1B22 : c4;
 1B23 : 20;
 1B24 : d6;
 1B25 : 98;
 1B26 : 85;
 1B27 : 19;
 1B28 : 64;
 1B29 : 0d;
 1B2A : 54;
 1B2B : 06;
 1B2C : 23;
 1B2D : 04;
 1B2E : 42;
 1B2F : 04;
 1B30 : 45;
 1B31 : 04;
 1B32 : 55;
 1B33 : 07;
 1B34 : 75;
 1B35 : 10;
 1B36 : 85;
 1B37 : 11;
 1B38 : 96;
 1B39 : 22;
 1B3A : 95;
 1B3B : 23;
 1B3C : 75;
 1B3D : 0c;
 1B3E : 65;
 1B3F : 0e;
 1B40 : 63;
 1B41 : 05;
 1B42 : 56;
 1B43 : 06;
 1B44 : 77;
 1B45 : 3b;
 1B46 : 77;
 1B47 : 80;
 1B48 : 76;
 1B49 : 75;
 1B4A : 66;
 1B4B : 1c;
 1B4C : 45;
 1B4D : 04;
 1B4E : 65;
 1B4F : 16;
 1B50 : 55;
 1B51 : 52;
 1B52 : 34;
 1B53 : 32;
 1B54 : 34;
 1B55 : 09;
 1B56 : 44;
 1B57 : 10;
 1B58 : 66;
 1B59 : 39;
 1B5A : 87;
 1B5B : a4;
 1B5C : 86;
 1B5D : 6d;
 1B5E : a6;
 1B5F : 34;
 1B60 : c5;
 1B61 : 20;
 1B62 : b5;
 1B63 : 25;
 1B64 : c5;
 1B65 : 36;
 1B66 : c6;
 1B67 : 7e;
 1B68 : 97;
 1B69 : cd;
 1B6A : 87;
 1B6B : b3;
 1B6C : 66;
 1B6D : 1c;
 1B6E : 20;
 1B6F : 03;
[...]
 397E : 00;
 397F : 00;
 3980 : 00;
 3981 : 00;
 3982 : 00;
 3983 : 00;
 3984 : 00;
 3985 : 00;
 3986 : 00;
 3987 : 00;
 3988 : 00;
 3989 : 00;
 398A : 00;
 398B : 00;
 398C : 00;
 398D : 00;
 398E : 00;
 398F : 00;
 3990 : 00;
 3991 : 00;
 3992 : 00;
 3993 : 00;
 3994 : 00;
 3995 : 00;
 3996 : 00;
 3997 : 00;
 3998 : 00;
 3999 : 00;
 399A : 00;
 399B : 00;
 399C : 00;
 399D : 00;
 399E : 00;
 399F : 00;
 39A0 : 00;
 39A1 : 00;
 39A2 : 00;
 39A3 : 00;
 39A4 : 00;
 39A5 : 00;
 39A6 : 00;
 39A7 : 00;
 39A8 : 00;
 39A9 : 00;
 39AA : 00;
 39AB : 00;
 39AC : 00;
 39AD : 00;
 39AE : 00;
 39AF : 00;
 39B0 : 00;
 39B1 : 00;
 39B2 : 00;
 39B3 : 00;
 39B4 : 00;
 39B5 : 00;
 39B6 : 00;
 39B7 : 00;
 39B8 : 00;
 39B9 : 00;
 39BA : 00;
 39BB : 00;
 39BC : 00;
 39BD : 00;
 39BE : 00;
 39BF : 00;
 39C0 : 00;
 39C1 : 00;
 39C2 : 00;
 39C3 : 00;
 39C4 : 00;
 39C5 : 00;
 39C6 : 00;
 39C7 : 00;
 39C8 : 00;
 39C9 : 00;
 39CA : 00;
 39CB : 00;
 39CC : 00;
 39CD : 00;
 39CE : 00;
 39CF : 00;
 39D0 : 00;
 39D1 : 00;
 39D2 : 00;
 39D3 : 00;
 39D4 : 00;
 39D5 : 00;
 39D6 : 00;
 39D7 : 00;
 39D8 : 00;
 39D9 : 00;
 39DA : 00;
 39DB : 00;
 39DC : 00;
 39DD : 00;
 39DE : 00;
 39DF : 00;
 39E0 : 00;
 39E1 : 00;
 39E2 : 00;
 39E3 : 00;
 39E4 : 00;
 39E5 : 00;
 39E6 : 00;
 39E7 : 00;
 39E8 : 00;
 39E9 : 00;
 39EA : 00;
 39EB : 00;
 39EC : 00;
 39ED : 00;
 39EE : 00;
 39EF : 00;
 39F0 : 00;
 39F1 : 00;
 39F2 : 00;
 39F3 : 00;
 39F4 : 00;
 39F5 : 00;
 39F6 : 00;
 39F7 : 00;
 39F8 : 00;
 39F9 : 00;
 39FA : 00;
 39FB : 00;
 39FC : 00;
 39FD : 00;
 39FE : 00;
 39FF : 00;
 3A00 : 00;
 3A01 : 00;
 3A02 : 00;
 3A03 : 00;
 3A04 : 00;
 3A05 : 00;
 3A06 : 00;
 3A07 : 00;
 3A08 : 00;
 3A09 : 00;
 3A0A : 00;
 3A0B : 00;
 3A0C : 00;
 3A0D : 00;
 3A0E : 00;
 3A0F : 00;
 3A10 : 00;
 3A11 : 00;
 3A12 : 00;
 3A13 : 00;
 3A14 : 00;
 3A15 : 00;
 3A16 : 00;
 3A17 : 00;
 3A18 : 00;
 3A19 : 00;
 3A1A : 00;
 3A1B : 00;
 3A1C : 00;
 3A1D : 00;
 3A1E : 00;
 3A1F : 00;
 3A20 : 00;
 3A21 : 00;
 3A22 : 00;
 3A23 : 00;
 3A24 : 00;
 3A25 : 00;
 3A26 : 00;
 3A27 : 00;
 3A28 : 00;
 3A29 : 00;
 3A2A : 00;
 3A2B : 00;
 3A2C : 00;
 3A2D : 00;
 3A2E : 00;
 3A2F : 00;
 3A30 : 00;
 3A31 : 00;
 3A32 : 00;
 3A33 : 00;
 3A34 : 00;
 3A35 : 00;
 3A36 : 00;
 3A37 : 00;
 3A38 : 00;
 3A39 : 00;
 3A3A : 00;
 3A3B : 00;
 3A3C : 00;
 3A3D : 00;
 3A3E : 00;
 3A3F : 00;
 3A40 : 00;
 3A41 : 00;
 3A42 : 00;
 3A43 : 00;
 3A44 : 00;
 3A45 : 00;
 3A46 : 00;
 3A47 : 00;
 3A48 : 00;
 3A49 : 00;
 3A4A : 00;
 3A4B : 00;
 3A4C : 00;
 3A4D : 00;
 3A4E : 00;
 3A4F : 00;
 3A50 : 00;
 3A51 : 00;
 3A52 : 00;
 3A53 : 00;
 3A54 : 00;
 3A55 : 00;
 3A56 : 00;
 3A57 : 00;
 3A58 : 00;
 3A59 : 00;
 3A5A : 00;
 3A5B : 00;
 3A5C : 00;
 3A5D : 00;
 3A5E : 00;
 3A5F : 00;
 3A60 : 00;
 3A61 : 00;
 3A62 : 00;
 3A63 : 00;
 3A64 : 00;
 3A65 : 00;
 3A66 : 00;
 3A67 : 00;
 3A68 : 00;
 3A69 : 00;
 3A6A : 00;
 3A6B : 00;
 3A6C : 00;
 3A6D : 00;
 3A6E : 00;
 3A6F : 00;
 3A70 : 00;
 3A71 : 00;
 3A72 : 00;
 3A73 : 00;
 3A74 : 00;
 3A75 : 00;
 3A76 : 00;
 3A77 : 00;
 3A78 : 00;
 3A79 : 00;
 3A7A : 00;
 3A7B : 00;
 3A7C : 00;
 3A7D : 00;
 3A7E : 00;
 3A7F : 00;
 3A80 : 00;
 3A81 : 00;
 3A82 : 00;
 3A83 : 00;
 3A84 : 00;
 3A85 : 00;
 3A86 : 00;
 3A87 : 00;
 3A88 : 00;
 3A89 : 00;
 3A8A : 00;
 3A8B : 00;
 3A8C : 00;
 3A8D : 00;
 3A8E : 00;
 3A8F : 00;
 3A90 : 00;
 3A91 : 00;
 3A92 : 00;
 3A93 : 00;
 3A94 : 00;
 3A95 : 00;
 3A96 : 00;
 3A97 : 00;
 3A98 : 00;
 3A99 : 00;
 3A9A : 00;
 3A9B : 00;
 3A9C : 00;
 3A9D : 00;
 3A9E : 00;
 3A9F : 00;
 3AA0 : 00;
 3AA1 : 00;
 3AA2 : 00;
 3AA3 : 00;
 3AA4 : 00;
 3AA5 : 00;
 3AA6 : 00;
 3AA7 : 00;
 3AA8 : 00;
 3AA9 : 00;
 3AAA : 00;
 3AAB : 00;
 3AAC : 00;
 3AAD : 00;
 3AAE : 00;
 3AAF : 00;
 3AB0 : 00;
 3AB1 : 00;
 3AB2 : 00;
 3AB3 : 00;
 3AB4 : 00;
 3AB5 : 00;
 3AB6 : 00;
 3AB7 : 00;
 3AB8 : 00;
 3AB9 : 00;
 3ABA : 00;
 3ABB : 00;
 3ABC : 00;
 3ABD : 00;
 3ABE : 00;
 3ABF : 00;
 3AC0 : 00;
 3AC1 : 00;
 3AC2 : 00;
 3AC3 : 00;
 3AC4 : 00;
 3AC5 : 00;
 3AC6 : 00;
 3AC7 : 00;
 3AC8 : 00;
 3AC9 : 00;
 3ACA : 00;
 3ACB : 00;
 3ACC : 00;
 3ACD : 00;
 3ACE : 00;
 3ACF : 00;
 3AD0 : 00;
 3AD1 : 00;
 3AD2 : 00;
 3AD3 : 00;
 3AD4 : 00;
 3AD5 : 00;
 3AD6 : 00;
 3AD7 : 00;
 3AD8 : 00;
 3AD9 : 00;
 3ADA : 00;
 3ADB : 00;
 3ADC : 00;
 3ADD : 00;
 3ADE : 00;
 3ADF : 00;
 3AE0 : 00;
 3AE1 : 00;
 3AE2 : 00;
 3AE3 : 00;
 3AE4 : 00;
 3AE5 : 00;
 3AE6 : 00;
 3AE7 : 00;
 3AE8 : 00;
 3AE9 : 00;
 3AEA : 00;
 3AEB : 00;
 3AEC : 00;
 3AED : 00;
 3AEE : 00;
 3AEF : 00;
 3AF0 : 00;
 3AF1 : 00;
 3AF2 : 00;
 3AF3 : 00;
 3AF4 : 00;
 3AF5 : 00;
 3AF6 : 00;
 3AF7 : 00;
 3AF8 : 00;
 3AF9 : 00;
 3AFA : 00;
 3AFB : 00;
 3AFC : 00;
 3AFD : 00;
 3AFE : 00;
 3AFF : 00;
 3B00 : 00;
 3B01 : 00;
 3B02 : 00;
 3B03 : 00;
 3B04 : 00;
 3B05 : 00;
 3B06 : 00;
 3B07 : 00;
 3B08 : 00;
 3B09 : 00;
 3B0A : 00;
 3B0B : 00;
 3B0C : 00;
 3B0D : 00;
 3B0E : 00;
 3B0F : 00;
 3B10 : 00;
 3B11 : 00;
 3B12 : 00;
 3B13 : 00;
 3B14 : 00;
 3B15 : 00;
 3B16 : 00;
 3B17 : 00;
 3B18 : 00;
 3B19 : 00;
 3B1A : 00;
 3B1B : 00;
 3B1C : 00;
 3B1D : 00;
 3B1E : 00;
 3B1F : 00;
 3B20 : 00;
 3B21 : 00;
 3B22 : 00;
 3B23 : 00;
 3B24 : 00;
 3B25 : 00;
 3B26 : 00;
 3B27 : 00;
 3B28 : 00;
 3B29 : 00;
 3B2A : 00;
 3B2B : 00;
 3B2C : 00;
 3B2D : 00;
 3B2E : 00;
 3B2F : 00;
 3B30 : 00;
 3B31 : 00;
 3B32 : 00;
 3B33 : 00;
 3B34 : 00;
 3B35 : 00;
 3B36 : 00;
 3B37 : 00;
 3B38 : 00;
 3B39 : 00;
 3B3A : 00;
 3B3B : 00;
 3B3C : 00;
 3B3D : 00;
 3B3E : 00;
 3B3F : 00;
 3B40 : 00;
 3B41 : 00;
 3B42 : 00;
 3B43 : 00;
 3B44 : 00;
 3B45 : 00;
 3B46 : 00;
 3B47 : 00;
 3B48 : 00;
 3B49 : 00;
 3B4A : 00;
 3B4B : 00;
 3B4C : 00;
 3B4D : 00;
 3B4E : 00;
 3B4F : 00;
 3B50 : 00;
 3B51 : 00;
 3B52 : 00;
 3B53 : 00;
 3B54 : 00;
 3B55 : 00;
 3B56 : 00;
 3B57 : 00;
 3B58 : 00;
 3B59 : 00;
 3B5A : 00;
 3B5B : 00;
 3B5C : 00;
 3B5D : 00;
 3B5E : 00;
 3B5F : 00;
 3B60 : 00;
 3B61 : 00;
 3B62 : 00;
 3B63 : 00;
 3B64 : 00;
 3B65 : 00;
 3B66 : 00;
 3B67 : 00;
 3B68 : 00;
 3B69 : 00;
 3B6A : 00;
 3B6B : 00;
 3B6C : 00;
 3B6D : 00;
 3B6E : 00;
 3B6F : 00;
 3B70 : 00;
 3B71 : 00;
 3B72 : 00;
 3B73 : 00;
 3B74 : 00;
 3B75 : 00;
 3B76 : 00;
 3B77 : 00;
 3B78 : 00;
 3B79 : 00;
 3B7A : 00;
 3B7B : 00;
 3B7C : 00;
 3B7D : 00;
 3B7E : 00;
 3B7F : 00;
 3B80 : 00;
 3B81 : 00;
 3B82 : 00;
 3B83 : 00;
 3B84 : 00;
 3B85 : 00;
 3B86 : 00;
 3B87 : 00;
 3B88 : 00;
 3B89 : 00;
 3B8A : 00;
 3B8B : 00;
 3B8C : 00;
 3B8D : 00;
 3B8E : 00;
 3B8F : 00;
 3B90 : 00;
 3B91 : 00;
 3B92 : 00;
 3B93 : 00;
 3B94 : 00;
 3B95 : 00;
 3B96 : 00;
 3B97 : 00;
 3B98 : 00;
 3B99 : 00;
 3B9A : 00;
 3B9B : 00;
 3B9C : 00;
 3B9D : 00;
 3B9E : 00;
 3B9F : 00;
 3BA0 : 00;
 3BA1 : 00;
 3BA2 : 00;
 3BA3 : 00;
 3BA4 : 00;
 3BA5 : 00;
 3BA6 : 00;
 3BA7 : 00;
 3BA8 : 00;
 3BA9 : 00;
 3BAA : 00;
 3BAB : 00;
 3BAC : 00;
 3BAD : 00;
 3BAE : 00;
 3BAF : 00;
 3BB0 : 00;
 3BB1 : 00;
 3BB2 : 00;
 3BB3 : 00;
 3BB4 : 00;
 3BB5 : 00;
 3BB6 : 00;
 3BB7 : 00;
 3BB8 : 00;
 3BB9 : 00;
 3BBA : 00;
 3BBB : 00;
 3BBC : 00;
 3BBD : 00;
 3BBE : 00;
 3BBF : 00;
 3BC0 : 00;
 3BC1 : 00;
 3BC2 : 00;
 3BC3 : 00;
 3BC4 : 00;
 3BC5 : 00;
 3BC6 : 00;
 3BC7 : 00;
 3BC8 : 00;
 3BC9 : 00;
 3BCA : 00;
 3BCB : 00;
 3BCC : 00;
 3BCD : 00;
 3BCE : 00;
 3BCF : 00;
 3BD0 : 00;
 3BD1 : 00;
 3BD2 : 00;
 3BD3 : 00;
 3BD4 : 00;
 3BD5 : 00;
 3BD6 : 00;
 3BD7 : 00;
 3BD8 : 00;
 3BD9 : 00;
 3BDA : 00;
 3BDB : 00;
 3BDC : 00;
 3BDD : 00;
 3BDE : 00;
 3BDF : 00;
 3BE0 : 00;
 3BE1 : 00;
 3BE2 : 00;
 3BE3 : 00;
 3BE4 : 00;
 3BE5 : 00;
 3BE6 : 00;
 3BE7 : 00;
 3BE8 : 00;
 3BE9 : 00;
 3BEA : 00;
 3BEB : 00;
 3BEC : 00;
 3BED : 00;
 3BEE : 00;
 3BEF : 00;
 3BF0 : 00;
 3BF1 : 00;
 3BF2 : 00;
 3BF3 : 00;
 3BF4 : 00;
 3BF5 : 00;
 3BF6 : 00;
 3BF7 : 00;
 3BF8 : 00;
 3BF9 : 00;
 3BFA : 00;
 3BFB : 00;
 3BFC : 00;
 3BFD : 00;
 3BFE : 00;
 3BFF : 00;
 3C00 : 00;
 3C01 : 00;
 3C02 : 00;
 3C03 : 00;
 3C04 : 00;
 3C05 : 00;
 3C06 : 00;
 3C07 : 00;
 3C08 : 00;
 3C09 : 00;
 3C0A : 00;
 3C0B : 00;
 3C0C : 00;
 3C0D : 00;
 3C0E : 00;
 3C0F : 00;
 3C10 : 00;
 3C11 : 00;
 3C12 : 00;
 3C13 : 00;
 3C14 : 00;
 3C15 : 00;
 3C16 : 00;
 3C17 : 00;
 3C18 : 00;
 3C19 : 00;
 3C1A : 00;
 3C1B : 00;
 3C1C : 00;
 3C1D : 00;
 3C1E : 00;
 3C1F : 00;
 3C20 : 00;
 3C21 : 00;
 3C22 : 00;
 3C23 : 00;
 3C24 : 00;
 3C25 : 00;
 3C26 : 00;
 3C27 : 00;
 3C28 : 00;
 3C29 : 00;
 3C2A : 00;
 3C2B : 00;
 3C2C : 00;
 3C2D : 00;
 3C2E : 00;
 3C2F : 00;
 3C30 : 00;
 3C31 : 00;
 3C32 : 00;
 3C33 : 00;
 3C34 : 00;
 3C35 : 00;
 3C36 : 00;
 3C37 : 00;
 3C38 : 00;
 3C39 : 00;
 3C3A : 00;
 3C3B : 00;
 3C3C : 00;
 3C3D : 00;
 3C3E : 00;
 3C3F : 00;
 3C40 : 00;
 3C41 : 00;
 3C42 : 00;
 3C43 : 00;
 3C44 : 00;
 3C45 : 00;
 3C46 : 00;
 3C47 : 00;
 3C48 : 00;
 3C49 : 00;
 3C4A : 00;
 3C4B : 00;
 3C4C : 00;
 3C4D : 00;
 3C4E : 00;
 3C4F : 00;
 3C50 : 00;
 3C51 : 00;
 3C52 : 00;
 3C53 : 00;
 3C54 : 00;
 3C55 : 00;
 3C56 : 00;
 3C57 : 00;
 3C58 : 00;
 3C59 : 00;
 3C5A : 00;
 3C5B : 00;
 3C5C : 00;
 3C5D : 00;
 3C5E : 00;
 3C5F : 00;
 3C60 : 00;
 3C61 : 00;
 3C62 : 00;
 3C63 : 00;
 3C64 : 00;
 3C65 : 00;
 3C66 : 00;
 3C67 : 00;
 3C68 : 00;
 3C69 : 00;
 3C6A : 00;
 3C6B : 00;
 3C6C : 00;
 3C6D : 00;
 3C6E : 00;
 3C6F : 00;
 3C70 : 00;
 3C71 : 00;
 3C72 : 00;
 3C73 : 00;
 3C74 : 00;
 3C75 : 00;
 3C76 : 00;
 3C77 : 00;
 3C78 : 00;
 3C79 : 00;
 3C7A : 00;
 3C7B : 00;
 3C7C : 00;
 3C7D : 00;
 3C7E : 00;
 3C7F : 00;
 3C80 : 00;
 3C81 : 00;
 3C82 : 00;
 3C83 : 00;
 3C84 : 00;
 3C85 : 00;
 3C86 : 00;
 3C87 : 00;
 3C88 : 00;
 3C89 : 00;
 3C8A : 00;
 3C8B : 00;
 3C8C : 00;
 3C8D : 00;
 3C8E : 00;
 3C8F : 00;
 3C90 : 00;
 3C91 : 00;
 3C92 : 00;
 3C93 : 00;
 3C94 : 00;
 3C95 : 00;
 3C96 : 00;
 3C97 : 00;
 3C98 : 00;
 3C99 : 00;
 3C9A : 00;
 3C9B : 00;
 3C9C : 00;
 3C9D : 00;
 3C9E : 00;
 3C9F : 00;
 3CA0 : 00;
 3CA1 : 00;
 3CA2 : 00;
 3CA3 : 00;
 3CA4 : 00;
 3CA5 : 00;
 3CA6 : 00;
 3CA7 : 00;
 3CA8 : 00;
 3CA9 : 00;
 3CAA : 00;
 3CAB : 00;
 3CAC : 00;
 3CAD : 00;
 3CAE : 00;
 3CAF : 00;
 3CB0 : 00;
 3CB1 : 00;
 3CB2 : 00;
 3CB3 : 00;
 3CB4 : 00;
 3CB5 : 00;
 3CB6 : 00;
 3CB7 : 00;
 3CB8 : 00;
 3CB9 : 00;
 3CBA : 00;
 3CBB : 00;
 3CBC : 00;
 3CBD : 00;
 3CBE : 00;
 3CBF : 00;
 3CC0 : 00;
 3CC1 : 00;
 3CC2 : 00;
 3CC3 : 00;
 3CC4 : 00;
 3CC5 : 00;
 3CC6 : 00;
 3CC7 : 00;
 3CC8 : 00;
 3CC9 : 00;
 3CCA : 00;
 3CCB : 00;
 3CCC : 00;
 3CCD : 00;
 3CCE : 00;
 3CCF : 00;
 3CD0 : 00;
 3CD1 : 00;
 3CD2 : 00;
 3CD3 : 00;
 3CD4 : 00;
 3CD5 : 00;
 3CD6 : 00;
 3CD7 : 00;
 3CD8 : 00;
 3CD9 : 00;
 3CDA : 00;
 3CDB : 00;
 3CDC : 00;
 3CDD : 00;
 3CDE : 00;
 3CDF : 00;
 3CE0 : 00;
 3CE1 : 00;
 3CE2 : 00;
 3CE3 : 00;
 3CE4 : 00;
 3CE5 : 00;
 3CE6 : 00;
 3CE7 : 00;
 3CE8 : 00;
 3CE9 : 00;
 3CEA : 00;
 3CEB : 00;
 3CEC : 00;
 3CED : 00;
 3CEE : 00;
 3CEF : 00;
 3CF0 : 00;
 3CF1 : 00;
 3CF2 : 00;
 3CF3 : 00;
 3CF4 : 00;
 3CF5 : 00;
 3CF6 : 00;
 3CF7 : 00;
 3CF8 : 00;
 3CF9 : 00;
 3CFA : 00;
 3CFB : 00;
 3CFC : 00;
 3CFD : 00;
 3CFE : 00;
 3CFF : 00;
 3D00 : 00;
 3D01 : 00;
 3D02 : 00;
 3D03 : 00;
 3D04 : 00;
 3D05 : 00;
 3D06 : 00;
 3D07 : 00;
 3D08 : 00;
 3D09 : 00;
 3D0A : 00;
 3D0B : 00;
 3D0C : 00;
 3D0D : 00;
 3D0E : 00;
 3D0F : 00;
 3D10 : 00;
 3D11 : 00;
 3D12 : 00;
 3D13 : 00;
 3D14 : 00;
 3D15 : 00;
 3D16 : 00;
 3D17 : 00;
 3D18 : 00;
 3D19 : 00;
 3D1A : 00;
 3D1B : 00;
 3D1C : 00;
 3D1D : 00;
 3D1E : 00;
 3D1F : 00;
 3D20 : 00;
 3D21 : 00;
 3D22 : 00;
 3D23 : 00;
 3D24 : 00;
 3D25 : 00;
 3D26 : 00;
 3D27 : 00;
 3D28 : 00;
 3D29 : 00;
 3D2A : 00;
 3D2B : 00;
 3D2C : 00;
 3D2D : 00;
 3D2E : 00;
 3D2F : 00;
 3D30 : 00;
 3D31 : 00;
 3D32 : 00;
 3D33 : 00;
 3D34 : 00;
 3D35 : 00;
 3D36 : 00;
 3D37 : 00;
 3D38 : 00;
 3D39 : 00;
 3D3A : 00;
 3D3B : 00;
 3D3C : 00;
 3D3D : 00;
 3D3E : 00;
 3D3F : 00;
 3D40 : 00;
 3D41 : 00;
 3D42 : 00;
 3D43 : 00;
 3D44 : 00;
 3D45 : 00;
 3D46 : 00;
 3D47 : 00;
 3D48 : 00;
 3D49 : 00;
 3D4A : 00;
 3D4B : 00;
 3D4C : 00;
 3D4D : 00;
 3D4E : 00;
 3D4F : 00;
 3D50 : 00;
 3D51 : 00;
 3D52 : 00;
 3D53 : 00;
 3D54 : 00;
 3D55 : 00;
 3D56 : 00;
 3D57 : 00;
 3D58 : 00;
 3D59 : 00;
 3D5A : 00;
 3D5B : 00;
 3D5C : 00;
 3D5D : 00;
 3D5E : 00;
 3D5F : 00;
 3D60 : 00;
 3D61 : 00;
 3D62 : 00;
 3D63 : 00;
 3D64 : 00;
 3D65 : 00;
 3D66 : 00;
 3D67 : 00;
 3D68 : 00;
 3D69 : 00;
 3D6A : 00;
 3D6B : 00;
 3D6C : 00;
 3D6D : 00;
 3D6E : 00;
 3D6F : 00;
 3D70 : 00;
 3D71 : 00;
 3D72 : 00;
 3D73 : 00;
 3D74 : 00;
 3D75 : 00;
 3D76 : 00;
 3D77 : 00;
 3D78 : 00;
 3D79 : 00;
 3D7A : 00;
 3D7B : 00;
 3D7C : 00;
 3D7D : 00;
 3D7E : 00;
 3D7F : 00;
 3D80 : 00;
 3D81 : 00;
 3D82 : 00;
 3D83 : 00;
 3D84 : 00;
 3D85 : 00;
 3D86 : 00;
 3D87 : 00;
 3D88 : 00;
 3D89 : 00;
 3D8A : 00;
 3D8B : 00;
 3D8C : 00;
 3D8D : 00;
 3D8E : 00;
 3D8F : 00;
 3D90 : 00;
 3D91 : 00;
 3D92 : 00;
 3D93 : 00;
 3D94 : 00;
 3D95 : 00;
 3D96 : 00;
 3D97 : 00;
 3D98 : 00;
 3D99 : 00;
 3D9A : 00;
 3D9B : 00;
 3D9C : 00;
 3D9D : 00;
 3D9E : 00;
 3D9F : 00;
 3DA0 : 00;
 3DA1 : 00;
 3DA2 : 00;
 3DA3 : 00;
 3DA4 : 00;
 3DA5 : 00;
 3DA6 : 00;
 3DA7 : 00;
 3DA8 : 00;
 3DA9 : 00;
 3DAA : 00;
 3DAB : 00;
 3DAC : 00;
 3DAD : 00;
 3DAE : 00;
 3DAF : 00;
 3DB0 : 00;
 3DB1 : 00;
 3DB2 : 00;
 3DB3 : 00;
 3DB4 : 00;
 3DB5 : 00;
 3DB6 : 00;
 3DB7 : 00;
 3DB8 : 00;
 3DB9 : 00;
 3DBA : 00;
 3DBB : 00;
 3DBC : 00;
 3DBD : 00;
 3DBE : 00;
 3DBF : 00;
 3DC0 : 00;
 3DC1 : 00;
 3DC2 : 00;
 3DC3 : 00;
 3DC4 : 00;
 3DC5 : 00;
 3DC6 : 00;
 3DC7 : 00;
 3DC8 : 00;
 3DC9 : 00;
 3DCA : 00;
 3DCB : 00;
 3DCC : 00;
 3DCD : 00;
 3DCE : 00;
 3DCF : 00;
 3DD0 : 00;
 3DD1 : 00;
 3DD2 : 00;
 3DD3 : 00;
 3DD4 : 00;
 3DD5 : 00;
 3DD6 : 00;
 3DD7 : 00;
 3DD8 : 00;
 3DD9 : 00;
 3DDA : 00;
 3DDB : 00;
 3DDC : 00;
 3DDD : 00;
 3DDE : 00;
 3DDF : 00;
 3DE0 : 00;
 3DE1 : 00;
 3DE2 : 00;
 3DE3 : 00;
 3DE4 : 00;
 3DE5 : 00;
 3DE6 : 00;
 3DE7 : 00;
 3DE8 : 00;
 3DE9 : 00;
 3DEA : 00;
 3DEB : 00;
 3DEC : 00;
 3DED : 00;
 3DEE : 00;
 3DEF : 00;
 3DF0 : 00;
 3DF1 : 00;
 3DF2 : 00;
 3DF3 : 00;
 3DF4 : 00;
 3DF5 : 00;
 3DF6 : 00;
 3DF7 : 00;
 3DF8 : 00;
 3DF9 : 00;
 3DFA : 00;
 3DFB : 00;
 3DFC : 00;
 3DFD : 00;
 3DFE : 00;
 3DFF : 00;
 3E00 : 00;
 3E01 : 00;
 3E02 : 00;
 3E03 : 00;
 3E04 : 00;
 3E05 : 00;
 3E06 : 00;
 3E07 : 00;
 3E08 : 00;
 3E09 : 00;
 3E0A : 00;
 3E0B : 00;
 3E0C : 00;
 3E0D : 00;
 3E0E : 00;
 3E0F : 00;
 3E10 : 00;
 3E11 : 00;
 3E12 : 00;
 3E13 : 00;
 3E14 : 00;
 3E15 : 00;
 3E16 : 00;
 3E17 : 00;
 3E18 : 00;
 3E19 : 00;
 3E1A : 00;
 3E1B : 00;
 3E1C : 00;
 3E1D : 00;
 3E1E : 00;
 3E1F : 00;
 3E20 : 00;
 3E21 : 00;
 3E22 : 00;
 3E23 : 00;
 3E24 : 00;
 3E25 : 00;
 3E26 : 00;
 3E27 : 00;
 3E28 : 00;
 3E29 : 00;
 3E2A : 00;
 3E2B : 00;
 3E2C : 00;
 3E2D : 00;
 3E2E : 00;
 3E2F : 00;
 3E30 : 00;
 3E31 : 00;
 3E32 : 00;
 3E33 : 00;
 3E34 : 00;
 3E35 : 00;
 3E36 : 00;
 3E37 : 00;
 3E38 : 00;
 3E39 : 00;
 3E3A : 00;
 3E3B : 00;
 3E3C : 00;
 3E3D : 00;
 3E3E : 00;
 3E3F : 00;
 3E40 : 00;
 3E41 : 00;
 3E42 : 00;
 3E43 : 00;
 3E44 : 00;
 3E45 : 00;
 3E46 : 00;
 3E47 : 00;
 3E48 : 00;
 3E49 : 00;
 3E4A : 00;
 3E4B : 00;
 3E4C : 00;
 3E4D : 00;
 3E4E : 00;
 3E4F : 00;
 3E50 : 00;
 3E51 : 00;
 3E52 : 00;
 3E53 : 00;
 3E54 : 00;
 3E55 : 00;
 3E56 : 00;
 3E57 : 00;
 3E58 : 00;
 3E59 : 00;
 3E5A : 00;
 3E5B : 00;
 3E5C : 00;
 3E5D : 00;
 3E5E : 00;
 3E5F : 00;
 3E60 : 00;
 3E61 : 00;
 3E62 : 00;
 3E63 : 00;
 3E64 : 00;
 3E65 : 00;
 3E66 : 00;
 3E67 : 00;
 3E68 : 00;
 3E69 : 00;
 3E6A : 00;
 3E6B : 00;
 3E6C : 00;
 3E6D : 00;
 3E6E : 00;
 3E6F : 00;
 3E70 : 00;
 3E71 : 00;
 3E72 : 00;
 3E73 : 00;
 3E74 : 00;
 3E75 : 00;
 3E76 : 00;
 3E77 : 00;
 3E78 : 00;
 3E79 : 00;
 3E7A : 00;
 3E7B : 00;
 3E7C : 00;
 3E7D : 00;
 3E7E : 00;
 3E7F : 00;
 3E80 : 00;
 3E81 : 00;
 3E82 : 00;
 3E83 : 00;
 3E84 : 00;
 3E85 : 00;
 3E86 : 00;
 3E87 : 00;
 3E88 : 00;
 3E89 : 00;
 3E8A : 00;
 3E8B : 00;
 3E8C : 00;
 3E8D : 00;
 3E8E : 00;
 3E8F : 00;
 3E90 : 00;
 3E91 : 00;
 3E92 : 00;
 3E93 : 00;
 3E94 : 00;
 3E95 : 00;
 3E96 : 00;
 3E97 : 00;
 3E98 : 00;
 3E99 : 00;
 3E9A : 00;
 3E9B : 00;
 3E9C : 00;
 3E9D : 00;
 3E9E : 00;
 3E9F : 00;
 3EA0 : 00;
 3EA1 : 00;
 3EA2 : 00;
 3EA3 : 00;
 3EA4 : 00;
 3EA5 : 00;
 3EA6 : 00;
 3EA7 : 00;
 3EA8 : 00;
 3EA9 : 00;
 3EAA : 00;
 3EAB : 00;
 3EAC : 00;
 3EAD : 00;
 3EAE : 00;
 3EAF : 00;
 3EB0 : 00;
 3EB1 : 00;
 3EB2 : 00;
 3EB3 : 00;
 3EB4 : 00;
 3EB5 : 00;
 3EB6 : 00;
 3EB7 : 00;
 3EB8 : 00;
 3EB9 : 00;
 3EBA : 00;
 3EBB : 00;
 3EBC : 00;
 3EBD : 00;
 3EBE : 00;
 3EBF : 00;
 3EC0 : 00;
 3EC1 : 00;
 3EC2 : 00;
 3EC3 : 00;
 3EC4 : 00;
 3EC5 : 00;
 3EC6 : 00;
 3EC7 : 00;
 3EC8 : 00;
 3EC9 : 00;
 3ECA : 00;
 3ECB : 00;
 3ECC : 00;
 3ECD : 00;
 3ECE : 00;
 3ECF : 00;
 3ED0 : 00;
 3ED1 : 00;
 3ED2 : 00;
 3ED3 : 00;
 3ED4 : 00;
 3ED5 : 00;
 3ED6 : 00;
 3ED7 : 00;
 3ED8 : 00;
 3ED9 : 00;
 3EDA : 00;
 3EDB : 00;
 3EDC : 00;
 3EDD : 00;
 3EDE : 00;
 3EDF : 00;
 3EE0 : 00;
 3EE1 : 00;
 3EE2 : 00;
 3EE3 : 00;
 3EE4 : 00;
 3EE5 : 00;
 3EE6 : 00;
 3EE7 : 00;
 3EE8 : 00;
 3EE9 : 00;
 3EEA : 00;
 3EEB : 00;
 3EEC : 00;
 3EED : 00;
 3EEE : 00;
 3EEF : 00;
 3EF0 : 00;
 3EF1 : 00;
 3EF2 : 00;
 3EF3 : 00;
 3EF4 : 00;
 3EF5 : 00;
 3EF6 : 00;
 3EF7 : 00;
 3EF8 : 00;
 3EF9 : 00;
 3EFA : 00;
 3EFB : 00;
 3EFC : 00;
 3EFD : 00;
 3EFE : 00;
 3EFF : 00;
 3F00 : 00;
 3F01 : 00;
 3F02 : 00;
 3F03 : 00;
 3F04 : 00;
 3F05 : 00;
 3F06 : 00;
 3F07 : 00;
 3F08 : 00;
 3F09 : 00;
 3F0A : 00;
 3F0B : 00;
 3F0C : 00;
 3F0D : 00;
 3F0E : 00;
 3F0F : 00;
 3F10 : 00;
 3F11 : 00;
 3F12 : 00;
 3F13 : 00;
 3F14 : 00;
 3F15 : 00;
 3F16 : 00;
 3F17 : 00;
 3F18 : 00;
 3F19 : 00;
 3F1A : 00;
 3F1B : 00;
 3F1C : 00;
 3F1D : 00;
 3F1E : 00;
 3F1F : 00;
 3F20 : 00;
 3F21 : 00;
 3F22 : 00;
 3F23 : 00;
 3F24 : 00;
 3F25 : 00;
 3F26 : 00;
 3F27 : 00;
 3F28 : 00;
 3F29 : 00;
 3F2A : 00;
 3F2B : 00;
 3F2C : 00;
 3F2D : 00;
 3F2E : 00;
 3F2F : 00;
 3F30 : 00;
 3F31 : 00;
 3F32 : 00;
 3F33 : 00;
 3F34 : 00;
 3F35 : 00;
 3F36 : 00;
 3F37 : 00;
 3F38 : 00;
 3F39 : 00;
 3F3A : 00;
 3F3B : 00;
 3F3C : 00;
 3F3D : 00;
 3F3E : 00;
 3F3F : 00;
 3F40 : 00;
 3F41 : 00;
 3F42 : 00;
 3F43 : 00;
 3F44 : 00;
 3F45 : 00;
 3F46 : 00;
 3F47 : 00;
 3F48 : 00;
 3F49 : 00;
 3F4A : 00;
 3F4B : 00;
 3F4C : 00;
 3F4D : 00;
 3F4E : 00;
 3F4F : 00;
 3F50 : 00;
 3F51 : 00;
 3F52 : 00;
 3F53 : 00;
 3F54 : 00;
 3F55 : 00;
 3F56 : 00;
 3F57 : 00;
 3F58 : 00;
 3F59 : 00;
 3F5A : 00;
 3F5B : 00;
 3F5C : 00;
 3F5D : 00;
 3F5E : 00;
 3F5F : 00;
 3F60 : 00;
 3F61 : 00;
 3F62 : 00;
 3F63 : 00;
 3F64 : 00;
 3F65 : 00;
 3F66 : 00;
 3F67 : 00;
 3F68 : 00;
 3F69 : 00;
 3F6A : 00;
 3F6B : 00;
 3F6C : 00;
 3F6D : 00;
 3F6E : 00;
 3F6F : 00;
 3F70 : 00;
 3F71 : 00;
 3F72 : 00;
 3F73 : 00;
 3F74 : 00;
 3F75 : 00;
 3F76 : 00;
 3F77 : 00;
 3F78 : 00;
 3F79 : 00;
 3F7A : 00;
 3F7B : 00;
 3F7C : 00;
 3F7D : 00;
 3F7E : 00;
 3F7F : 00;
 3F80 : 00;
 3F81 : 00;
 3F82 : 00;
 3F83 : 00;
 3F84 : 00;
 3F85 : 00;
 3F86 : 00;
 3F87 : 00;
 3F88 : 00;
 3F89 : 00;
 3F8A : 00;
 3F8B : 00;
 3F8C : 00;
 3F8D : 00;
 3F8E : 00;
 3F8F : 00;
 3F90 : 00;
 3F91 : 00;
 3F92 : 00;
 3F93 : 00;
 3F94 : 00;
 3F95 : 00;
 3F96 : 00;
 3F97 : 00;
 3F98 : 00;
 3F99 : 00;
 3F9A : 00;
 3F9B : 00;
 3F9C : 00;
 3F9D : 00;
 3F9E : 00;
 3F9F : 00;
 3FA0 : 00;
 3FA1 : 00;
 3FA2 : 00;
 3FA3 : 00;
 3FA4 : 00;
 3FA5 : 00;
 3FA6 : 00;
 3FA7 : 00;
 3FA8 : 00;
 3FA9 : 00;
 3FAA : 00;
 3FAB : 00;
 3FAC : 00;
 3FAD : 00;
 3FAE : 00;
 3FAF : 00;
 3FB0 : 00;
 3FB1 : 00;
 3FB2 : 00;
 3FB3 : 00;
 3FB4 : 00;
 3FB5 : 00;
 3FB6 : 00;
 3FB7 : 00;
 3FB8 : 00;
 3FB9 : 00;
 3FBA : 00;
 3FBB : 00;
 3FBC : 00;
 3FBD : 00;
 3FBE : 00;
 3FBF : 00;
 3FC0 : 00;
 3FC1 : 00;
 3FC2 : 00;
 3FC3 : 00;
 3FC4 : 00;
 3FC5 : 00;
 3FC6 : 00;
 3FC7 : 00;
 3FC8 : 00;
 3FC9 : 00;
 3FCA : 00;
 3FCB : 00;
 3FCC : 00;
 3FCD : 00;
 3FCE : 00;
 3FCF : 00;
 3FD0 : 00;
 3FD1 : 00;
 3FD2 : 00;
 3FD3 : 00;
 3FD4 : 00;
 3FD5 : 00;
 3FD6 : 00;
 3FD7 : 00;
 3FD8 : 00;
 3FD9 : 00;
 3FDA : 00;
 3FDB : 00;
 3FDC : 00;
 3FDD : 00;
 3FDE : 00;
 3FDF : 00;
 3FE0 : 00;
 3FE1 : 00;
 3FE2 : 00;
 3FE3 : 00;
 3FE4 : 00;
 3FE5 : 00;
 3FE6 : 00;
 3FE7 : 00;
 3FE8 : 00;
 3FE9 : 00;
 3FEA : 00;
 3FEB : 00;
 3FEC : 00;
 3FED : 00;
 3FEE : 00;
 3FEF : 00;
 3FF0 : 00;
 3FF1 : 00;
 3FF2 : 00;
 3FF3 : 00;
 3FF4 : 00;
 3FF5 : 00;
 3FF6 : 00;
 3FF7 : 00;
 3FF8 : 00;
 3FF9 : 00;
 3FFA : 00;
 3FFB : 00;
 3FFC : 00;
 3FFD : 00;
 3FFE : 00;
 3FFF : 00;
END;
